175
Properties=species:S:1:pos:R:3:energies:R:1:forces:R:3 energy=41.70088193430175 free_energy=41.70088193430175 pbc="F F F"
Au       0.00000000      -0.00000000       0.00000000       0.04405484      -0.00000000       0.00000000       0.00000000
Au       1.60005888       1.60005888       1.60005888       0.03365554       0.00255587       0.00255587       0.00255587
Au       1.60005888      -1.60005888       1.60005888       0.03365554       0.00255587      -0.00255587       0.00255587
Au      -1.60005888       1.60005888       1.60005888       0.03365554      -0.00255587       0.00255587       0.00255587
Au      -1.60005888      -1.60005888       1.60005888       0.03365554      -0.00255587      -0.00255587       0.00255587
Au       1.60005888       1.60005888      -1.60005888       0.03365554       0.00255587       0.00255587      -0.00255587
Au       1.60005888      -1.60005888      -1.60005888       0.03365554       0.00255587      -0.00255587      -0.00255587
Au      -1.60005888       1.60005888      -1.60005888       0.03365554      -0.00255587       0.00255587      -0.00255587
Au      -1.60005888      -1.60005888      -1.60005888       0.03365554      -0.00255587      -0.00255587      -0.00255587
Au       3.20196634       0.00000000       0.00000000       0.04118419      -0.01087332       0.00000000      -0.00000000
Au      -3.20196634      -0.00000000      -0.00000000       0.04118419       0.01087332      -0.00000000      -0.00000000
Au      -0.00000000       3.20196634       0.00000000       0.04118419       0.00000000      -0.01087332       0.00000000
Au      -0.00000000      -3.20196634      -0.00000000       0.04118419      -0.00000000       0.01087332       0.00000000
Au       0.00000000      -0.00000000       3.20196634       0.04118419      -0.00000000      -0.00000000      -0.01087332
Au      -0.00000000      -0.00000000      -3.20196634       0.04118419      -0.00000000       0.00000000       0.01087332
Au       3.19143059       3.19143059       3.19143059       0.07357126      -0.02305330      -0.02305330      -0.02305330
Au       3.19143059      -3.19143059       3.19143059       0.07357126      -0.02305330       0.02305330      -0.02305330
Au      -3.19143059       3.19143059       3.19143059       0.07357126       0.02305330      -0.02305330      -0.02305330
Au      -3.19143059      -3.19143059       3.19143059       0.07357126       0.02305330       0.02305330      -0.02305330
Au       3.19143059       3.19143059      -3.19143059       0.07357126      -0.02305330      -0.02305330       0.02305330
Au       3.19143059      -3.19143059      -3.19143059       0.07357126      -0.02305330       0.02305330       0.02305330
Au      -3.19143059       3.19143059      -3.19143059       0.07357126       0.02305330      -0.02305330       0.02305330
Au      -3.19143059      -3.19143059      -3.19143059       0.07357126       0.02305330       0.02305330       0.02305330
Au       6.41124747       0.00000000       0.00000000       0.11125819       0.01387961      -0.00000000      -0.00000000
Au      -6.41124747       0.00000000      -0.00000000       0.11125819      -0.01387961      -0.00000000       0.00000000
Au       0.00000000       6.41124747      -0.00000000       0.11125819      -0.00000000       0.01387961       0.00000000
Au       0.00000000      -6.41124747      -0.00000000       0.11125819      -0.00000000      -0.01387961       0.00000000
Au       0.00000000      -0.00000000       6.41124747       0.11125819      -0.00000000      -0.00000000       0.01387961
Au       0.00000000      -0.00000000      -6.41124747       0.11125819      -0.00000000      -0.00000000      -0.01387961
Au       3.23794967      -0.00000000       3.23794967       0.03015920      -0.00390735       0.00000000      -0.00390735
Au       0.00000000       3.23794967       3.23794967       0.03015920      -0.00000000      -0.00390735      -0.00390735
Au      -0.00000000      -3.23794967       3.23794967       0.03015920      -0.00000000       0.00390735      -0.00390735
Au      -3.23794967      -0.00000000       3.23794967       0.03015920       0.00390735       0.00000000      -0.00390735
Au       3.23794967       3.23794967      -0.00000000       0.03015920      -0.00390735      -0.00390735       0.00000000
Au       3.23794967      -3.23794967      -0.00000000       0.03015920      -0.00390735       0.00390735      -0.00000000
Au       3.23794967       0.00000000      -3.23794967       0.03015920      -0.00390735      -0.00000000       0.00390735
Au      -3.23794967       3.23794967      -0.00000000       0.03015920       0.00390735      -0.00390735       0.00000000
Au      -0.00000000       3.23794967      -3.23794967       0.03015920       0.00000000      -0.00390735       0.00390735
Au      -3.23794967      -3.23794967       0.00000000       0.03015920       0.00390735       0.00390735      -0.00000000
Au       0.00000000      -3.23794967      -3.23794967       0.03015920      -0.00000000       0.00390735       0.00390735
Au      -3.23794967       0.00000000      -3.23794967       0.03015920       0.00390735      -0.00000000       0.00390735
Au       4.82631326       1.60108314       1.60108314       0.05404119       0.00748618      -0.00656359      -0.00656359
Au       4.82631326      -1.60108314       1.60108314       0.05404119       0.00748618       0.00656359      -0.00656359
Au       4.82631326       1.60108314      -1.60108314       0.05404119       0.00748618      -0.00656359       0.00656359
Au       4.82631326      -1.60108314      -1.60108314       0.05404119       0.00748618       0.00656359       0.00656359
Au      -4.82631326       1.60108314       1.60108314       0.05404119      -0.00748618      -0.00656359      -0.00656359
Au      -4.82631326      -1.60108314       1.60108314       0.05404119      -0.00748618       0.00656359      -0.00656359
Au      -4.82631326       1.60108314      -1.60108314       0.05404119      -0.00748618      -0.00656359       0.00656359
Au      -4.82631326      -1.60108314      -1.60108314       0.05404119      -0.00748618       0.00656359       0.00656359
Au       1.60108314       4.82631326       1.60108314       0.05404119      -0.00656359       0.00748618      -0.00656359
Au      -1.60108314       4.82631326       1.60108314       0.05404119       0.00656359       0.00748618      -0.00656359
Au       1.60108314       4.82631326      -1.60108314       0.05404119      -0.00656359       0.00748618       0.00656359
Au      -1.60108314       4.82631326      -1.60108314       0.05404119       0.00656359       0.00748618       0.00656359
Au       1.60108314      -4.82631326       1.60108314       0.05404119      -0.00656359      -0.00748618      -0.00656359
Au      -1.60108314      -4.82631326       1.60108314       0.05404119       0.00656359      -0.00748618      -0.00656359
Au       1.60108314      -4.82631326      -1.60108314       0.05404119      -0.00656359      -0.00748618       0.00656359
Au      -1.60108314      -4.82631326      -1.60108314       0.05404119       0.00656359      -0.00748618       0.00656359
Au       1.60108314       1.60108314       4.82631326       0.05404119      -0.00656359      -0.00656359       0.00748618
Au       1.60108314      -1.60108314       4.82631326       0.05404119      -0.00656359       0.00656359       0.00748618
Au      -1.60108314       1.60108314       4.82631326       0.05404119       0.00656359      -0.00656359       0.00748618
Au      -1.60108314      -1.60108314       4.82631326       0.05404119       0.00656359       0.00656359       0.00748618
Au       1.60108314       1.60108314      -4.82631326       0.05404119      -0.00656359      -0.00656359      -0.00748618
Au       1.60108314      -1.60108314      -4.82631326       0.05404119      -0.00656359       0.00656359      -0.00748618
Au      -1.60108314       1.60108314      -4.82631326       0.05404119       0.00656359      -0.00656359      -0.00748618
Au      -1.60108314      -1.60108314      -4.82631326       0.05404119       0.00656359       0.00656359      -0.00748618
Au       4.70022519       4.70022519       4.70022519       0.47511197       0.01971639       0.01971639       0.01971639
Au       4.70022519      -4.70022519       4.70022519       0.47511197       0.01971639      -0.01971639       0.01971639
Au      -4.70022519       4.70022519       4.70022519       0.47511197      -0.01971639       0.01971639       0.01971639
Au      -4.70022519      -4.70022519       4.70022519       0.47511197      -0.01971639      -0.01971639       0.01971639
Au       4.70022519       4.70022519      -4.70022519       0.47511197       0.01971639       0.01971639      -0.01971639
Au       4.70022519      -4.70022519      -4.70022519       0.47511197       0.01971639      -0.01971639      -0.01971639
Au      -4.70022519       4.70022519      -4.70022519       0.47511197      -0.01971639       0.01971639      -0.01971639
Au      -4.70022519      -4.70022519      -4.70022519       0.47511197      -0.01971639      -0.01971639      -0.01971639
Au       9.34830117      -0.00000000       0.00000000       0.58291594      -0.04299447      -0.00000000      -0.00000000
Au      -9.34830117       0.00000000       0.00000000       0.58291594       0.04299447       0.00000000       0.00000000
Au       0.00000000       9.34830117      -0.00000000       0.58291594      -0.00000000      -0.04299447       0.00000000
Au      -0.00000000      -9.34830117       0.00000000       0.58291594       0.00000000       0.04299447       0.00000000
Au       0.00000000       0.00000000       9.34830117       0.58291594      -0.00000000      -0.00000000      -0.04299447
Au      -0.00000000      -0.00000000      -9.34830117       0.58291594      -0.00000000       0.00000000       0.04299447
Au       4.81480050      -1.61352286       4.81480050       0.25713951      -0.00765070      -0.04217223      -0.00765070
Au      -1.61352286       4.81480050       4.81480050       0.25713951      -0.04217223      -0.00765070      -0.00765070
Au      -1.61352286      -4.81480050       4.81480050       0.25713951      -0.04217223       0.00765070      -0.00765070
Au      -4.81480050      -1.61352286       4.81480050       0.25713951       0.00765070      -0.04217223      -0.00765070
Au       4.81480050       4.81480050      -1.61352286       0.25713951      -0.00765070      -0.00765070      -0.04217223
Au       4.81480050      -4.81480050      -1.61352286       0.25713951      -0.00765070       0.00765070      -0.04217223
Au       4.81480050      -1.61352286      -4.81480050       0.25713951      -0.00765070      -0.04217223       0.00765070
Au      -4.81480050       4.81480050      -1.61352286       0.25713951       0.00765070      -0.00765070      -0.04217223
Au      -1.61352286       4.81480050      -4.81480050       0.25713951      -0.04217223      -0.00765070       0.00765070
Au      -4.81480050      -4.81480050      -1.61352286       0.25713951       0.00765070       0.00765070      -0.04217223
Au      -1.61352286      -4.81480050      -4.81480050       0.25713951      -0.04217223       0.00765070       0.00765070
Au      -4.81480050      -1.61352286      -4.81480050       0.25713951       0.00765070      -0.04217223       0.00765070
Au       7.91455764       1.58672957       1.58672957       0.38786892      -0.01734318       0.02123936       0.02123936
Au       7.91455764      -1.58672957       1.58672957       0.38786892      -0.01734318      -0.02123936       0.02123936
Au       7.91455764       1.58672957      -1.58672957       0.38786892      -0.01734318       0.02123936      -0.02123936
Au       7.91455764      -1.58672957      -1.58672957       0.38786892      -0.01734318      -0.02123936      -0.02123936
Au      -7.91455764       1.58672957       1.58672957       0.38786892       0.01734318       0.02123936       0.02123936
Au      -7.91455764      -1.58672957       1.58672957       0.38786892       0.01734318      -0.02123936       0.02123936
Au      -7.91455764       1.58672957      -1.58672957       0.38786892       0.01734318       0.02123936      -0.02123936
Au      -7.91455764      -1.58672957      -1.58672957       0.38786892       0.01734318      -0.02123936      -0.02123936
Au       1.58672957       7.91455764       1.58672957       0.38786892       0.02123936      -0.01734318       0.02123936
Au      -1.58672957       7.91455764       1.58672957       0.38786892      -0.02123936      -0.01734318       0.02123936
Au       1.58672957       7.91455764      -1.58672957       0.38786892       0.02123936      -0.01734318      -0.02123936
Au      -1.58672957       7.91455764      -1.58672957       0.38786892      -0.02123936      -0.01734318      -0.02123936
Au       1.58672957      -7.91455764       1.58672957       0.38786892       0.02123936       0.01734318       0.02123936
Au      -1.58672957      -7.91455764       1.58672957       0.38786892      -0.02123936       0.01734318       0.02123936
Au       1.58672957      -7.91455764      -1.58672957       0.38786892       0.02123936       0.01734318      -0.02123936
Au      -1.58672957      -7.91455764      -1.58672957       0.38786892      -0.02123936       0.01734318      -0.02123936
Au       1.58672957       1.58672957       7.91455764       0.38786892       0.02123936       0.02123936      -0.01734318
Au       1.58672957      -1.58672957       7.91455764       0.38786892       0.02123936      -0.02123936      -0.01734318
Au      -1.58672957       1.58672957       7.91455764       0.38786892      -0.02123936       0.02123936      -0.01734318
Au      -1.58672957      -1.58672957       7.91455764       0.38786892      -0.02123936      -0.02123936      -0.01734318
Au       1.58672957       1.58672957      -7.91455764       0.38786892       0.02123936       0.02123936       0.01734318
Au       1.58672957      -1.58672957      -7.91455764       0.38786892       0.02123936      -0.02123936       0.01734318
Au      -1.58672957       1.58672957      -7.91455764       0.38786892      -0.02123936       0.02123936       0.01734318
Au      -1.58672957      -1.58672957      -7.91455764       0.38786892      -0.02123936      -0.02123936       0.01734318
Au       4.81480050       1.61352286       4.81480050       0.25713951      -0.00765070       0.04217223      -0.00765070
Au       1.61352286       4.81480050       4.81480050       0.25713951       0.04217223      -0.00765070      -0.00765070
Au       1.61352286      -4.81480050       4.81480050       0.25713951       0.04217223       0.00765070      -0.00765070
Au      -4.81480050       1.61352286       4.81480050       0.25713951       0.00765070       0.04217223      -0.00765070
Au       4.81480050       4.81480050       1.61352286       0.25713951      -0.00765070      -0.00765070       0.04217223
Au       4.81480050      -4.81480050       1.61352286       0.25713951      -0.00765070       0.00765070       0.04217223
Au       4.81480050       1.61352286      -4.81480050       0.25713951      -0.00765070       0.04217223       0.00765070
Au      -4.81480050       4.81480050       1.61352286       0.25713951       0.00765070      -0.00765070       0.04217223
Au       1.61352286       4.81480050      -4.81480050       0.25713951       0.04217223      -0.00765070       0.00765070
Au      -4.81480050      -4.81480050       1.61352286       0.25713951       0.00765070       0.00765070       0.04217223
Au       1.61352286      -4.81480050      -4.81480050       0.25713951       0.04217223       0.00765070       0.00765070
Au      -4.81480050       1.61352286      -4.81480050       0.25713951       0.00765070       0.04217223       0.00765070
Au       6.33896476       3.16307207       3.16307207       0.39029940      -0.00011050       0.01986487       0.01986487
Au       6.33896476      -3.16307207       3.16307207       0.39029940      -0.00011050      -0.01986487       0.01986487
Au       6.33896476       3.16307207      -3.16307207       0.39029940      -0.00011050       0.01986487      -0.01986487
Au       6.33896476      -3.16307207      -3.16307207       0.39029940      -0.00011050      -0.01986487      -0.01986487
Au      -6.33896476       3.16307207       3.16307207       0.39029940       0.00011050       0.01986487       0.01986487
Au      -6.33896476      -3.16307207       3.16307207       0.39029940       0.00011050      -0.01986487       0.01986487
Au      -6.33896476       3.16307207      -3.16307207       0.39029940       0.00011050       0.01986487      -0.01986487
Au      -6.33896476      -3.16307207      -3.16307207       0.39029940       0.00011050      -0.01986487      -0.01986487
Au       3.16307207       6.33896476       3.16307207       0.39029940       0.01986487      -0.00011050       0.01986487
Au      -3.16307207       6.33896476       3.16307207       0.39029940      -0.01986487      -0.00011050       0.01986487
Au       3.16307207       6.33896476      -3.16307207       0.39029940       0.01986487      -0.00011050      -0.01986487
Au      -3.16307207       6.33896476      -3.16307207       0.39029940      -0.01986487      -0.00011050      -0.01986487
Au       3.16307207      -6.33896476       3.16307207       0.39029940       0.01986487       0.00011050       0.01986487
Au      -3.16307207      -6.33896476       3.16307207       0.39029940      -0.01986487       0.00011050       0.01986487
Au       3.16307207      -6.33896476      -3.16307207       0.39029940       0.01986487       0.00011050      -0.01986487
Au      -3.16307207      -6.33896476      -3.16307207       0.39029940      -0.01986487       0.00011050      -0.01986487
Au       3.16307207       3.16307207       6.33896476       0.39029940       0.01986487       0.01986487      -0.00011050
Au       3.16307207      -3.16307207       6.33896476       0.39029940       0.01986487      -0.01986487      -0.00011050
Au      -3.16307207       3.16307207       6.33896476       0.39029940      -0.01986487       0.01986487      -0.00011050
Au      -3.16307207      -3.16307207       6.33896476       0.39029940      -0.01986487      -0.01986487      -0.00011050
Au       3.16307207       3.16307207      -6.33896476       0.39029940       0.01986487       0.01986487       0.00011050
Au       3.16307207      -3.16307207      -6.33896476       0.39029940       0.01986487      -0.01986487       0.00011050
Au      -3.16307207       3.16307207      -6.33896476       0.39029940      -0.01986487       0.01986487       0.00011050
Au      -3.16307207      -3.16307207      -6.33896476       0.39029940      -0.01986487      -0.01986487       0.00011050
Au       6.40130409       0.00000000       3.22630212       0.25332001      -0.03114576       0.00000000       0.00218748
Au       3.22630212      -0.00000000       6.40130409       0.25332001       0.00218748      -0.00000000      -0.03114576
Au      -0.00000000       6.40130409       3.22630212       0.25332001       0.00000000      -0.03114576       0.00218748
Au       0.00000000       3.22630212       6.40130409       0.25332001      -0.00000000       0.00218748      -0.03114576
Au       0.00000000      -6.40130409       3.22630212       0.25332001      -0.00000000       0.03114576       0.00218748
Au      -0.00000000      -3.22630212       6.40130409       0.25332001       0.00000000      -0.00218748      -0.03114576
Au      -6.40130409      -0.00000000       3.22630212       0.25332001       0.03114576      -0.00000000       0.00218748
Au      -3.22630212      -0.00000000       6.40130409       0.25332001      -0.00218748       0.00000000      -0.03114576
Au       6.40130409       3.22630212      -0.00000000       0.25332001      -0.03114576       0.00218748      -0.00000000
Au       3.22630212       6.40130409       0.00000000       0.25332001       0.00218748      -0.03114576       0.00000000
Au       6.40130409      -3.22630212       0.00000000       0.25332001      -0.03114576      -0.00218748      -0.00000000
Au       3.22630212      -6.40130409      -0.00000000       0.25332001       0.00218748       0.03114576      -0.00000000
Au       6.40130409       0.00000000      -3.22630212       0.25332001      -0.03114576      -0.00000000      -0.00218748
Au       3.22630212      -0.00000000      -6.40130409       0.25332001       0.00218748       0.00000000       0.03114576
Au      -6.40130409       3.22630212      -0.00000000       0.25332001       0.03114576       0.00218748      -0.00000000
Au      -3.22630212       6.40130409      -0.00000000       0.25332001      -0.00218748      -0.03114576       0.00000000
Au      -0.00000000       6.40130409      -3.22630212       0.25332001      -0.00000000      -0.03114576      -0.00218748
Au      -0.00000000       3.22630212      -6.40130409       0.25332001       0.00000000       0.00218748       0.03114576
Au      -6.40130409      -3.22630212       0.00000000       0.25332001       0.03114576      -0.00218748      -0.00000000
Au      -3.22630212      -6.40130409       0.00000000       0.25332001      -0.00218748       0.03114576      -0.00000000
Au      -0.00000000      -6.40130409      -3.22630212       0.25332001       0.00000000       0.03114576      -0.00218748
Au      -0.00000000      -3.22630212      -6.40130409       0.25332001       0.00000000      -0.00218748       0.03114576
Au      -6.40130409       0.00000000      -3.22630212       0.25332001       0.03114576      -0.00000000      -0.00218748
Au      -3.22630212      -0.00000000      -6.40130409       0.25332001      -0.00218748      -0.00000000       0.03114576
