65
Properties=species:S:1:pos:R:3:energies:R:1:forces:R:3 energy=20.83536229719609 free_energy=20.83536229719609 pbc="F F F"
Au       0.00000000       0.00000000       0.00000000       0.03864792      -0.00000000      -0.00000000       0.00000000
Au       1.60438017       1.60438017       1.60438017       0.05277492       0.00918181       0.00918181       0.00918181
Au       1.60438017      -1.60438017       1.60438017       0.05277492       0.00918181      -0.00918181       0.00918181
Au      -1.60438017       1.60438017       1.60438017       0.05277492      -0.00918181       0.00918181       0.00918181
Au      -1.60438017      -1.60438017       1.60438017       0.05277492      -0.00918181      -0.00918181       0.00918181
Au       1.60438017       1.60438017      -1.60438017       0.05277492       0.00918181       0.00918181      -0.00918181
Au       1.60438017      -1.60438017      -1.60438017       0.05277492       0.00918181      -0.00918181      -0.00918181
Au      -1.60438017       1.60438017      -1.60438017       0.05277492      -0.00918181       0.00918181      -0.00918181
Au      -1.60438017      -1.60438017      -1.60438017       0.05277492      -0.00918181      -0.00918181      -0.00918181
Au       3.22295252      -0.00000000      -0.00000000       0.08092041      -0.04391022       0.00000000       0.00000000
Au      -3.22295252      -0.00000000      -0.00000000       0.08092041       0.04391022      -0.00000000       0.00000000
Au       0.00000000       3.22295252      -0.00000000       0.08092041       0.00000000      -0.04391022       0.00000000
Au       0.00000000      -3.22295252       0.00000000       0.08092041       0.00000000       0.04391022       0.00000000
Au      -0.00000000       0.00000000       3.22295252       0.08092041       0.00000000      -0.00000000      -0.04391022
Au       0.00000000      -0.00000000      -3.22295252       0.08092041      -0.00000000       0.00000000       0.04391022
Au       3.12937186       3.12937186       3.12937186       0.48543227       0.01107785       0.01107785       0.01107785
Au       3.12937186      -3.12937186       3.12937186       0.48543227       0.01107785      -0.01107785       0.01107785
Au      -3.12937186       3.12937186       3.12937186       0.48543227      -0.01107785       0.01107785       0.01107785
Au      -3.12937186      -3.12937186       3.12937186       0.48543227      -0.01107785      -0.01107785       0.01107785
Au       3.12937186       3.12937186      -3.12937186       0.48543227       0.01107785       0.01107785      -0.01107785
Au       3.12937186      -3.12937186      -3.12937186       0.48543227       0.01107785      -0.01107785      -0.01107785
Au      -3.12937186       3.12937186      -3.12937186       0.48543227      -0.01107785       0.01107785      -0.01107785
Au      -3.12937186      -3.12937186      -3.12937186       0.48543227      -0.01107785      -0.01107785      -0.01107785
Au       6.13608355       0.00000000       0.00000000       0.57863884       0.00071843      -0.00000000      -0.00000000
Au      -6.13608355       0.00000000      -0.00000000       0.57863884      -0.00071843       0.00000000       0.00000000
Au      -0.00000000       6.13608355       0.00000000       0.57863884       0.00000000       0.00071843      -0.00000000
Au      -0.00000000      -6.13608355      -0.00000000       0.57863884       0.00000000      -0.00071843       0.00000000
Au       0.00000000      -0.00000000       6.13608355       0.57863884       0.00000000       0.00000000       0.00071843
Au      -0.00000000       0.00000000      -6.13608355       0.57863884      -0.00000000      -0.00000000      -0.00071843
Au       3.21505711      -0.00000000       3.21505711       0.25325817      -0.00927088       0.00000000      -0.00927088
Au      -0.00000000       3.21505711       3.21505711       0.25325817       0.00000000      -0.00927088      -0.00927088
Au       0.00000000      -3.21505711       3.21505711       0.25325817       0.00000000       0.00927088      -0.00927088
Au      -3.21505711      -0.00000000       3.21505711       0.25325817       0.00927088      -0.00000000      -0.00927088
Au       3.21505711       3.21505711      -0.00000000       0.25325817      -0.00927088      -0.00927088       0.00000000
Au       3.21505711      -3.21505711       0.00000000       0.25325817      -0.00927088       0.00927088      -0.00000000
Au       3.21505711      -0.00000000      -3.21505711       0.25325817      -0.00927088       0.00000000       0.00927088
Au      -3.21505711       3.21505711      -0.00000000       0.25325817       0.00927088      -0.00927088       0.00000000
Au       0.00000000       3.21505711      -3.21505711       0.25325817      -0.00000000      -0.00927088       0.00927088
Au      -3.21505711      -3.21505711      -0.00000000       0.25325817       0.00927088       0.00927088       0.00000000
Au       0.00000000      -3.21505711      -3.21505711       0.25325817       0.00000000       0.00927088       0.00927088
Au      -3.21505711      -0.00000000      -3.21505711       0.25325817       0.00927088       0.00000000       0.00927088
Au       4.72585827       1.59689181       1.59689181       0.39560847       0.00944302       0.00334286       0.00334286
Au       4.72585827      -1.59689181       1.59689181       0.39560847       0.00944302      -0.00334286       0.00334286
Au       4.72585827       1.59689181      -1.59689181       0.39560847       0.00944302       0.00334286      -0.00334286
Au       4.72585827      -1.59689181      -1.59689181       0.39560847       0.00944302      -0.00334286      -0.00334286
Au      -4.72585827       1.59689181       1.59689181       0.39560847      -0.00944302       0.00334286       0.00334286
Au      -4.72585827      -1.59689181       1.59689181       0.39560847      -0.00944302      -0.00334286       0.00334286
Au      -4.72585827       1.59689181      -1.59689181       0.39560847      -0.00944302       0.00334286      -0.00334286
Au      -4.72585827      -1.59689181      -1.59689181       0.39560847      -0.00944302      -0.00334286      -0.00334286
Au       1.59689181       4.72585827       1.59689181       0.39560847       0.00334286       0.00944302       0.00334286
Au      -1.59689181       4.72585827       1.59689181       0.39560847      -0.00334286       0.00944302       0.00334286
Au       1.59689181       4.72585827      -1.59689181       0.39560847       0.00334286       0.00944302      -0.00334286
Au      -1.59689181       4.72585827      -1.59689181       0.39560847      -0.00334286       0.00944302      -0.00334286
Au       1.59689181      -4.72585827       1.59689181       0.39560847       0.00334286      -0.00944302       0.00334286
Au      -1.59689181      -4.72585827       1.59689181       0.39560847      -0.00334286      -0.00944302       0.00334286
Au       1.59689181      -4.72585827      -1.59689181       0.39560847       0.00334286      -0.00944302      -0.00334286
Au      -1.59689181      -4.72585827      -1.59689181       0.39560847      -0.00334286      -0.00944302      -0.00334286
Au       1.59689181       1.59689181       4.72585827       0.39560847       0.00334286       0.00334286       0.00944302
Au       1.59689181      -1.59689181       4.72585827       0.39560847       0.00334286      -0.00334286       0.00944302
Au      -1.59689181       1.59689181       4.72585827       0.39560847      -0.00334286       0.00334286       0.00944302
Au      -1.59689181      -1.59689181       4.72585827       0.39560847      -0.00334286      -0.00334286       0.00944302
Au       1.59689181       1.59689181      -4.72585827       0.39560847       0.00334286       0.00334286      -0.00944302
Au       1.59689181      -1.59689181      -4.72585827       0.39560847       0.00334286      -0.00334286      -0.00944302
Au      -1.59689181       1.59689181      -4.72585827       0.39560847      -0.00334286       0.00334286      -0.00944302
Au      -1.59689181      -1.59689181      -4.72585827       0.39560847      -0.00334286      -0.00334286      -0.00944302
