155
Properties=species:S:1:pos:R:3:energies:R:1:forces:R:3 energy=51.2355250582213 free_energy=51.2355250582213 pbc="F F F"
Au       0.00000000      -0.00000000       0.00000000       0.25239130      -0.00000000       0.00000000      -0.00000000
Au       2.54290610       2.54290610       2.54290610       0.11959203       0.00606469       0.00606469       0.00606469
Au      -2.54290610       2.54290610       2.54290610       0.11959203      -0.00606469       0.00606469       0.00606469
Au       2.54290610      -2.54290610       2.54290610       0.11959203       0.00606469      -0.00606469       0.00606469
Au       2.54290610       2.54290610      -2.54290610       0.11959203       0.00606469       0.00606469      -0.00606469
Au      -2.54290610      -2.54290610       2.54290610       0.11959203      -0.00606469      -0.00606469       0.00606469
Au      -2.54290610       2.54290610      -2.54290610       0.11959203      -0.00606469       0.00606469      -0.00606469
Au       2.54290610      -2.54290610      -2.54290610       0.11959203       0.00606469      -0.00606469      -0.00606469
Au      -2.54290610      -2.54290610      -2.54290610       0.11959203      -0.00606469      -0.00606469      -0.00606469
Au      -0.00000000       4.11450849       1.57160240       0.11959203       0.00000000       0.00981288       0.00374819
Au       0.00000000      -4.11450849       1.57160240       0.11959203      -0.00000000      -0.00981288       0.00374819
Au      -0.00000000       4.11450849      -1.57160240       0.11959203       0.00000000       0.00981288      -0.00374819
Au      -0.00000000      -4.11450849      -1.57160240       0.11959203      -0.00000000      -0.00981288      -0.00374819
Au       1.57160240       0.00000000       4.11450849       0.11959203       0.00374819      -0.00000000       0.00981288
Au      -1.57160240       0.00000000       4.11450849       0.11959203      -0.00374819      -0.00000000       0.00981288
Au       1.57160240       0.00000000      -4.11450849       0.11959203       0.00374819      -0.00000000      -0.00981288
Au      -1.57160240       0.00000000      -4.11450849       0.11959203      -0.00374819      -0.00000000      -0.00981288
Au       4.11450849       1.57160240       0.00000000       0.11959203       0.00981288       0.00374819      -0.00000000
Au       4.11450849      -1.57160240       0.00000000       0.11959203       0.00981288      -0.00374819      -0.00000000
Au      -4.11450849       1.57160240      -0.00000000       0.11959203      -0.00981288       0.00374819       0.00000000
Au      -4.11450849      -1.57160240      -0.00000000       0.11959203      -0.00981288      -0.00374819       0.00000000
Au       1.43674269       2.32469851       0.00000000       0.11688185       0.01166452       0.01887359      -0.00000000
Au      -0.00000000       1.43674269       2.32469851       0.11688185       0.00000000       0.01166452       0.01887359
Au      -1.43674269       2.32469851      -0.00000000       0.11688185      -0.01166452       0.01887359       0.00000000
Au      -0.00000000       1.43674269      -2.32469851       0.11688185       0.00000000       0.01166452      -0.01887359
Au       2.32469851      -0.00000000      -1.43674269       0.11688185       0.01887359       0.00000000      -0.01166452
Au       2.32469851      -0.00000000       1.43674269       0.11688185       0.01887359       0.00000000       0.01166452
Au      -1.43674269      -2.32469851       0.00000000       0.11688185      -0.01166452      -0.01887359      -0.00000000
Au       0.00000000      -1.43674269       2.32469851       0.11688185      -0.00000000      -0.01166452       0.01887359
Au       1.43674269      -2.32469851       0.00000000       0.11688185       0.01166452      -0.01887359      -0.00000000
Au      -0.00000000      -1.43674269      -2.32469851       0.11688185       0.00000000      -0.01166452      -0.01887359
Au      -2.32469851       0.00000000      -1.43674269       0.11688185      -0.01887359      -0.00000000      -0.01166452
Au      -2.32469851       0.00000000       1.43674269       0.11688185      -0.01887359      -0.00000000       0.01166452
Au       4.92099133       4.92099133       4.92099133       0.57024793       0.00571483       0.00571483       0.00571483
Au      -4.92099133       4.92099133       4.92099133       0.57024793      -0.00571483       0.00571483       0.00571483
Au       4.92099133      -4.92099133       4.92099133       0.57024793       0.00571483      -0.00571483       0.00571483
Au       4.92099133       4.92099133      -4.92099133       0.57024793       0.00571483       0.00571483      -0.00571483
Au      -4.92099133      -4.92099133       4.92099133       0.57024793      -0.00571483      -0.00571483       0.00571483
Au      -4.92099133       4.92099133      -4.92099133       0.57024793      -0.00571483       0.00571483      -0.00571483
Au       4.92099133      -4.92099133      -4.92099133       0.57024793       0.00571483      -0.00571483      -0.00571483
Au      -4.92099133      -4.92099133      -4.92099133       0.57024793      -0.00571483      -0.00571483      -0.00571483
Au       0.00000000       7.96233124       3.04133990       0.57024793      -0.00000000       0.00924679       0.00353196
Au      -0.00000000      -7.96233124       3.04133990       0.57024793       0.00000000      -0.00924679       0.00353196
Au       0.00000000       7.96233124      -3.04133990       0.57024793      -0.00000000       0.00924679      -0.00353196
Au       0.00000000      -7.96233124      -3.04133990       0.57024793      -0.00000000      -0.00924679      -0.00353196
Au       3.04133990       0.00000000       7.96233124       0.57024793       0.00353196      -0.00000000       0.00924679
Au      -3.04133990      -0.00000000       7.96233124       0.57024793      -0.00353196       0.00000000       0.00924679
Au       3.04133990      -0.00000000      -7.96233124       0.57024793       0.00353196       0.00000000      -0.00924679
Au      -3.04133990      -0.00000000      -7.96233124       0.57024793      -0.00353196       0.00000000      -0.00924679
Au       7.96233124       3.04133990      -0.00000000       0.57024793       0.00924679       0.00353196       0.00000000
Au       7.96233124      -3.04133990      -0.00000000       0.57024793       0.00924679      -0.00353196       0.00000000
Au      -7.96233124       3.04133990       0.00000000       0.57024793      -0.00924679       0.00353196      -0.00000000
Au      -7.96233124      -3.04133990       0.00000000       0.57024793      -0.00924679      -0.00353196      -0.00000000
Au       2.48960691       6.51787552       4.02826861       0.52451620      -0.00000200      -0.00000524      -0.00000324
Au      -2.48960691       6.51787552       4.02826861       0.52451620       0.00000200      -0.00000524      -0.00000324
Au       2.48960691      -6.51787552       4.02826861       0.52451620      -0.00000200       0.00000524      -0.00000324
Au      -2.48960691      -6.51787552       4.02826861       0.52451620       0.00000200       0.00000524      -0.00000324
Au       2.48960691       6.51787552      -4.02826861       0.52451620      -0.00000200      -0.00000524       0.00000324
Au      -2.48960691       6.51787552      -4.02826861       0.52451620       0.00000200      -0.00000524       0.00000324
Au      -0.00000000       8.05653721      -0.00000000       0.52451620       0.00000000      -0.00000648       0.00000000
Au       2.48960691      -6.51787552      -4.02826861       0.52451620      -0.00000200       0.00000524       0.00000324
Au      -2.48960691      -6.51787552      -4.02826861       0.52451620       0.00000200       0.00000524       0.00000324
Au       0.00000000      -8.05653721      -0.00000000       0.52451620      -0.00000000       0.00000648       0.00000000
Au       4.02826861       2.48960691       6.51787552       0.52451620      -0.00000324      -0.00000200      -0.00000524
Au       4.02826861      -2.48960691       6.51787552       0.52451620      -0.00000324       0.00000200      -0.00000524
Au      -4.02826861       2.48960691       6.51787552       0.52451620       0.00000324      -0.00000200      -0.00000524
Au      -4.02826861      -2.48960691       6.51787552       0.52451620       0.00000324       0.00000200      -0.00000524
Au       0.00000000       0.00000000       8.05653721       0.52451620      -0.00000000      -0.00000000      -0.00000648
Au       4.02826861       2.48960691      -6.51787552       0.52451620      -0.00000324      -0.00000200       0.00000524
Au       4.02826861      -2.48960691      -6.51787552       0.52451620      -0.00000324       0.00000200       0.00000524
Au      -4.02826861       2.48960691      -6.51787552       0.52451620       0.00000324      -0.00000200       0.00000524
Au      -4.02826861      -2.48960691      -6.51787552       0.52451620       0.00000324       0.00000200       0.00000524
Au       0.00000000       0.00000000      -8.05653721       0.52451620      -0.00000000      -0.00000000       0.00000648
Au       6.51787552       4.02826861       2.48960691       0.52451620      -0.00000524      -0.00000324      -0.00000200
Au       6.51787552       4.02826861      -2.48960691       0.52451620      -0.00000524      -0.00000324       0.00000200
Au       6.51787552      -4.02826861       2.48960691       0.52451620      -0.00000524       0.00000324      -0.00000200
Au       6.51787552      -4.02826861      -2.48960691       0.52451620      -0.00000524       0.00000324       0.00000200
Au       8.05653721      -0.00000000       0.00000000       0.52451620      -0.00000648       0.00000000      -0.00000000
Au      -6.51787552       4.02826861       2.48960691       0.52451620       0.00000524      -0.00000324      -0.00000200
Au      -6.51787552       4.02826861      -2.48960691       0.52451620       0.00000524      -0.00000324       0.00000200
Au      -6.51787552      -4.02826861       2.48960691       0.52451620       0.00000524       0.00000324      -0.00000200
Au      -6.51787552      -4.02826861      -2.48960691       0.52451620       0.00000524       0.00000324       0.00000200
Au      -8.05653721      -0.00000000      -0.00000000       0.52451620       0.00000648       0.00000000       0.00000000
Au       2.82093235       4.56436443       0.00000000       0.25406895      -0.01406983      -0.02276546      -0.00000000
Au       3.95575628       4.88013489       2.46008028       0.28332398      -0.00400481      -0.00248060      -0.00647103
Au       1.49567600       6.40054811       1.52041323       0.28332398       0.00246622      -0.00647992      -0.00399932
Au       1.49567600       6.40054811      -1.52041323       0.28332398       0.00246622      -0.00647992       0.00399932
Au       3.95575628       4.88013489      -2.46008028       0.28332398      -0.00400481      -0.00248060       0.00647103
Au       5.47616951       3.94046783      -0.00000000       0.28332398      -0.00800413      -0.00000888       0.00000000
Au      -0.00000000       2.82093235       4.56436443       0.25406895       0.00000000      -0.01406983      -0.02276546
Au       2.46008028       3.95575628       4.88013489       0.28332398      -0.00647103      -0.00400481      -0.00248060
Au       1.52041323       1.49567600       6.40054811       0.28332398      -0.00399932       0.00246622      -0.00647992
Au      -1.52041323       1.49567600       6.40054811       0.28332398       0.00399932       0.00246622      -0.00647992
Au      -2.46008028       3.95575628       4.88013489       0.28332398       0.00647103      -0.00400481      -0.00248060
Au       0.00000000       5.47616951       3.94046783       0.28332398      -0.00000000      -0.00800413      -0.00000888
Au      -2.82093235       4.56436443      -0.00000000       0.25406895       0.01406983      -0.02276546       0.00000000
Au      -1.49567600       6.40054811       1.52041323       0.28332398      -0.00246622      -0.00647992      -0.00399932
Au      -3.95575628       4.88013489       2.46008028       0.28332398       0.00400481      -0.00248060      -0.00647103
Au      -5.47616951       3.94046783       0.00000000       0.28332398       0.00800413      -0.00000888      -0.00000000
Au      -3.95575628       4.88013489      -2.46008028       0.28332398       0.00400481      -0.00248060       0.00647103
Au      -1.49567600       6.40054811      -1.52041323       0.28332398      -0.00246622      -0.00647992       0.00399932
Au      -0.00000000       2.82093235      -4.56436443       0.25406895       0.00000000      -0.01406983       0.02276546
Au       0.00000000       5.47616951      -3.94046783       0.28332398      -0.00000000      -0.00800413       0.00000888
Au      -2.46008028       3.95575628      -4.88013489       0.28332398       0.00647103      -0.00400481       0.00248060
Au      -1.52041323       1.49567600      -6.40054811       0.28332398       0.00399932       0.00246622       0.00647992
Au       1.52041323       1.49567600      -6.40054811       0.28332398      -0.00399932       0.00246622       0.00647992
Au       2.46008028       3.95575628      -4.88013489       0.28332398      -0.00647103      -0.00400481       0.00248060
Au       4.56436443       0.00000000      -2.82093235       0.25406895      -0.02276546      -0.00000000       0.01406983
Au       4.88013489       2.46008028      -3.95575628       0.28332398      -0.00248060      -0.00647103       0.00400481
Au       3.94046783      -0.00000000      -5.47616951       0.28332398      -0.00000888       0.00000000       0.00800413
Au       4.88013489      -2.46008028      -3.95575628       0.28332398      -0.00248060       0.00647103       0.00400481
Au       6.40054811      -1.52041323      -1.49567600       0.28332398      -0.00647992       0.00399932      -0.00246622
Au       6.40054811       1.52041323      -1.49567600       0.28332398      -0.00647992      -0.00399932      -0.00246622
Au       4.56436443      -0.00000000       2.82093235       0.25406895      -0.02276546       0.00000000      -0.01406983
Au       6.40054811       1.52041323       1.49567600       0.28332398      -0.00647992      -0.00399932       0.00246622
Au       6.40054811      -1.52041323       1.49567600       0.28332398      -0.00647992       0.00399932       0.00246622
Au       4.88013489      -2.46008028       3.95575628       0.28332398      -0.00248060       0.00647103      -0.00400481
Au       3.94046783       0.00000000       5.47616951       0.28332398      -0.00000888      -0.00000000      -0.00800413
Au       4.88013489       2.46008028       3.95575628       0.28332398      -0.00248060      -0.00647103      -0.00400481
Au      -2.82093235      -4.56436443       0.00000000       0.25406895       0.01406983       0.02276546      -0.00000000
Au      -3.95575628      -4.88013489       2.46008028       0.28332398       0.00400481       0.00248060      -0.00647103
Au      -1.49567600      -6.40054811       1.52041323       0.28332398      -0.00246622       0.00647992      -0.00399932
Au      -1.49567600      -6.40054811      -1.52041323       0.28332398      -0.00246622       0.00647992       0.00399932
Au      -3.95575628      -4.88013489      -2.46008028       0.28332398       0.00400481       0.00248060       0.00647103
Au      -5.47616951      -3.94046783       0.00000000       0.28332398       0.00800413       0.00000888      -0.00000000
Au       0.00000000      -2.82093235       4.56436443       0.25406895      -0.00000000       0.01406983      -0.02276546
Au      -2.46008028      -3.95575628       4.88013489       0.28332398       0.00647103       0.00400481      -0.00248060
Au      -1.52041323      -1.49567600       6.40054811       0.28332398       0.00399932      -0.00246622      -0.00647992
Au       1.52041323      -1.49567600       6.40054811       0.28332398      -0.00399932      -0.00246622      -0.00647992
Au       2.46008028      -3.95575628       4.88013489       0.28332398      -0.00647103       0.00400481      -0.00248060
Au      -0.00000000      -5.47616951       3.94046783       0.28332398       0.00000000       0.00800413      -0.00000888
Au       2.82093235      -4.56436443       0.00000000       0.25406895      -0.01406983       0.02276546      -0.00000000
Au       1.49567600      -6.40054811       1.52041323       0.28332398       0.00246622       0.00647992      -0.00399932
Au       3.95575628      -4.88013489       2.46008028       0.28332398      -0.00400481       0.00248060      -0.00647103
Au       5.47616951      -3.94046783      -0.00000000       0.28332398      -0.00800413       0.00000888       0.00000000
Au       3.95575628      -4.88013489      -2.46008028       0.28332398      -0.00400481       0.00248060       0.00647103
Au       1.49567600      -6.40054811      -1.52041323       0.28332398       0.00246622       0.00647992       0.00399932
Au      -0.00000000      -2.82093235      -4.56436443       0.25406895       0.00000000       0.01406983       0.02276546
Au       0.00000000      -5.47616951      -3.94046783       0.28332398      -0.00000000       0.00800413       0.00000888
Au       2.46008028      -3.95575628      -4.88013489       0.28332398      -0.00647103       0.00400481       0.00248060
Au       1.52041323      -1.49567600      -6.40054811       0.28332398      -0.00399932      -0.00246622       0.00647992
Au      -1.52041323      -1.49567600      -6.40054811       0.28332398       0.00399932      -0.00246622       0.00647992
Au      -2.46008028      -3.95575628      -4.88013489       0.28332398       0.00647103       0.00400481       0.00248060
Au      -4.56436443       0.00000000      -2.82093235       0.25406895       0.02276546      -0.00000000       0.01406983
Au      -4.88013489      -2.46008028      -3.95575628       0.28332398       0.00248060       0.00647103       0.00400481
Au      -3.94046783      -0.00000000      -5.47616951       0.28332398       0.00000888       0.00000000       0.00800413
Au      -4.88013489       2.46008028      -3.95575628       0.28332398       0.00248060      -0.00647103       0.00400481
Au      -6.40054811       1.52041323      -1.49567600       0.28332398       0.00647992      -0.00399932      -0.00246622
Au      -6.40054811      -1.52041323      -1.49567600       0.28332398       0.00647992       0.00399932      -0.00246622
Au      -4.56436443       0.00000000       2.82093235       0.25406895       0.02276546      -0.00000000      -0.01406983
Au      -6.40054811      -1.52041323       1.49567600       0.28332398       0.00647992       0.00399932       0.00246622
Au      -6.40054811       1.52041323       1.49567600       0.28332398       0.00647992      -0.00399932       0.00246622
Au      -4.88013489       2.46008028       3.95575628       0.28332398       0.00248060      -0.00647103      -0.00400481
Au      -3.94046783      -0.00000000       5.47616951       0.28332398       0.00000888       0.00000000      -0.00800413
Au      -4.88013489      -2.46008028       3.95575628       0.28332398       0.00248060       0.00647103      -0.00400481
