65
Properties=species:S:1:pos:R:3:energies:R:1:forces:R:3 energy=19.70579034443095 free_energy=19.70579034443095 pbc="F F F"
Au       0.00000000       0.00000000       0.00000000       0.00275424      -0.00000000      -0.00000000      -0.00000000
Au       0.00000000       0.00000000       3.96770326       0.02879860      -0.00000000      -0.00000000       0.02733033
Au      -0.00000000       0.00000000      -3.96770326       0.02879860       0.00000000      -0.00000000      -0.02733033
Au       2.00412945       2.00412945       0.00000000       0.08620492      -0.00631589      -0.00631589       0.00000000
Au       2.00412945      -2.00412945      -0.00000000       0.08620492      -0.00631589       0.00631589       0.00000000
Au      -2.00412945       2.00412945      -0.00000000       0.08620492       0.00631589      -0.00631589       0.00000000
Au      -2.00412945      -2.00412945       0.00000000       0.08620492       0.00631589       0.00631589      -0.00000000
Au       2.03515597      -0.00000000       1.99626682       0.04788968      -0.00567175      -0.00000000       0.01512842
Au       2.03515597       0.00000000      -1.99626682       0.04788968      -0.00567175       0.00000000      -0.01512842
Au      -2.03515597      -0.00000000       1.99626682       0.04788968       0.00567175       0.00000000       0.01512842
Au      -2.03515597      -0.00000000      -1.99626682       0.04788968       0.00567175      -0.00000000      -0.01512842
Au      -0.00000000       2.03515597       1.99626682       0.04788968      -0.00000000      -0.00567175       0.01512842
Au       0.00000000       2.03515597      -1.99626682       0.04788968      -0.00000000      -0.00567175      -0.01512842
Au      -0.00000000      -2.03515597       1.99626682       0.04788968       0.00000000       0.00567175       0.01512842
Au       0.00000000      -2.03515597      -1.99626682       0.04788968      -0.00000000       0.00567175      -0.01512842
Au       0.00000000       0.00000000       7.58006145       0.66018866       0.00000000      -0.00000000      -0.02501463
Au      -0.00000000      -0.00000000      -7.58006145       0.66018866      -0.00000000      -0.00000000       0.02501463
Au       3.89834242       3.89834242      -0.00000000       0.55515519      -0.00700519      -0.00700519       0.00000000
Au       3.89834242      -3.89834242      -0.00000000       0.55515519      -0.00700519       0.00700519       0.00000000
Au      -3.89834242       3.89834242       0.00000000       0.55515519       0.00700519      -0.00700519       0.00000000
Au      -3.89834242      -3.89834242      -0.00000000       0.55515519       0.00700519       0.00700519       0.00000000
Au       3.92873506      -0.00000000       3.89343121       0.46245873       0.02115187       0.00000000      -0.01403335
Au       3.92873506       0.00000000      -3.89343121       0.46245873       0.02115187      -0.00000000       0.01403335
Au      -3.92873506       0.00000000       3.89343121       0.46245873      -0.02115187      -0.00000000      -0.01403335
Au      -3.92873506       0.00000000      -3.89343121       0.46245873      -0.02115187      -0.00000000       0.01403335
Au      -0.00000000       3.92873506       3.89343121       0.46245873      -0.00000000       0.02115187      -0.01403335
Au       0.00000000       3.92873506      -3.89343121       0.46245873      -0.00000000       0.02115187       0.01403335
Au       0.00000000      -3.92873506       3.89343121       0.46245873      -0.00000000      -0.02115187      -0.01403335
Au       0.00000000      -3.92873506      -3.89343121       0.46245873       0.00000000      -0.02115187       0.01403335
Au       2.01024321       0.00000000       5.84595645       0.37852462       0.00088593      -0.00000000      -0.00412391
Au       3.97980398       2.00041867       1.95470921       0.36342131       0.00816819      -0.01193676       0.00221959
Au       3.97980398      -2.00041867       1.95470921       0.36342131       0.00816819       0.01193676       0.00221959
Au       2.01024321       0.00000000      -5.84595645       0.37852462       0.00088593      -0.00000000       0.00412391
Au       3.97980398       2.00041867      -1.95470921       0.36342131       0.00816819      -0.01193676      -0.00221959
Au       3.97980398      -2.00041867      -1.95470921       0.36342131       0.00816819       0.01193676      -0.00221959
Au      -2.01024321       0.00000000       5.84595645       0.37852462      -0.00088593      -0.00000000      -0.00412391
Au      -3.97980398       2.00041867       1.95470921       0.36342131      -0.00816819      -0.01193676       0.00221959
Au      -3.97980398      -2.00041867       1.95470921       0.36342131      -0.00816819       0.01193676       0.00221959
Au      -2.01024321       0.00000000      -5.84595645       0.37852462      -0.00088593      -0.00000000       0.00412391
Au      -3.97980398       2.00041867      -1.95470921       0.36342131      -0.00816819      -0.01193676      -0.00221959
Au      -3.97980398      -2.00041867      -1.95470921       0.36342131      -0.00816819       0.01193676      -0.00221959
Au       0.00000000       2.01024321       5.84595645       0.37852462       0.00000000       0.00088593      -0.00412391
Au       2.00041867       3.97980398       1.95470921       0.36342131      -0.01193676       0.00816819       0.00221959
Au      -2.00041867       3.97980398       1.95470921       0.36342131       0.01193676       0.00816819       0.00221959
Au       2.06101790       2.06101790       3.97167258       0.22118241       0.00082063       0.00082063       0.00138205
Au      -2.06101790       2.06101790       3.97167258       0.22118241      -0.00082063       0.00082063       0.00138205
Au      -0.00000000       2.01024321      -5.84595645       0.37852462       0.00000000       0.00088593       0.00412391
Au       2.00041867       3.97980398      -1.95470921       0.36342131      -0.01193676       0.00816819      -0.00221959
Au      -2.00041867       3.97980398      -1.95470921       0.36342131       0.01193676       0.00816819      -0.00221959
Au       2.06101790       2.06101790      -3.97167258       0.22118241       0.00082063       0.00082063      -0.00138205
Au      -2.06101790       2.06101790      -3.97167258       0.22118241      -0.00082063       0.00082063      -0.00138205
Au      -0.00000000      -2.01024321       5.84595645       0.37852462       0.00000000      -0.00088593      -0.00412391
Au       2.00041867      -3.97980398       1.95470921       0.36342131      -0.01193676      -0.00816819       0.00221959
Au      -2.00041867      -3.97980398       1.95470921       0.36342131       0.01193676      -0.00816819       0.00221959
Au       2.06101790      -2.06101790       3.97167258       0.22118241       0.00082063      -0.00082063       0.00138205
Au      -2.06101790      -2.06101790       3.97167258       0.22118241      -0.00082063      -0.00082063       0.00138205
Au      -0.00000000      -2.01024321      -5.84595645       0.37852462       0.00000000      -0.00088593       0.00412391
Au       2.00041867      -3.97980398      -1.95470921       0.36342131      -0.01193676      -0.00816819      -0.00221959
Au      -2.00041867      -3.97980398      -1.95470921       0.36342131       0.01193676      -0.00816819      -0.00221959
Au       2.06101790      -2.06101790      -3.97167258       0.22118241       0.00082063      -0.00082063      -0.00138205
Au      -2.06101790      -2.06101790      -3.97167258       0.22118241      -0.00082063      -0.00082063      -0.00138205
Au       4.04702927      -0.00000000      -0.00000000       0.26610917      -0.01928851      -0.00000000       0.00000000
Au      -4.04702927      -0.00000000       0.00000000       0.26610917       0.01928851       0.00000000      -0.00000000
Au       0.00000000       4.04702927      -0.00000000       0.26610917      -0.00000000      -0.01928851      -0.00000000
Au       0.00000000      -4.04702927      -0.00000000       0.26610917      -0.00000000       0.01928851       0.00000000
