175
Properties=species:S:1:pos:R:3:energies:R:1:forces:R:3 energy=37.93257336856943 free_energy=37.93257336856943 pbc="F F F"
Au      -0.00000000       0.00000000      -0.00000000       0.01322127      -0.00000000      -0.00000000       0.00000000
Au      -0.00000000      -0.00000000       3.99123873      -0.00037088       0.00000000      -0.00000000      -0.01420737
Au       0.00000000       0.00000000      -3.99123873      -0.00037088      -0.00000000      -0.00000000       0.01420737
Au       2.00546964       2.00546964       0.00000000       0.00122769      -0.00129553      -0.00129553      -0.00000000
Au       2.00546964      -2.00546964      -0.00000000       0.00122769      -0.00129553       0.00129553       0.00000000
Au      -2.00546964       2.00546964      -0.00000000       0.00122769       0.00129553      -0.00129553      -0.00000000
Au      -2.00546964      -2.00546964      -0.00000000       0.00122769       0.00129553       0.00129553       0.00000000
Au       2.02283201      -0.00000000       2.00023366       0.00153664      -0.00891363      -0.00000000      -0.00298611
Au       2.02283201      -0.00000000      -2.00023366       0.00153664      -0.00891363       0.00000000       0.00298611
Au      -2.02283201      -0.00000000       2.00023366       0.00153664       0.00891363       0.00000000      -0.00298611
Au      -2.02283201      -0.00000000      -2.00023366       0.00153664       0.00891363       0.00000000       0.00298611
Au       0.00000000       2.02283201       2.00023366       0.00153664      -0.00000000      -0.00891363      -0.00298611
Au       0.00000000       2.02283201      -2.00023366       0.00153664      -0.00000000      -0.00891363       0.00298611
Au      -0.00000000      -2.02283201       2.00023366       0.00153664       0.00000000       0.00891363      -0.00298611
Au      -0.00000000      -2.02283201      -2.00023366       0.00153664      -0.00000000       0.00891363       0.00298611
Au      -0.00000000      -0.00000000       7.88848270       0.04370963      -0.00000000       0.00000000      -0.00585771
Au       0.00000000      -0.00000000      -7.88848270       0.04370963      -0.00000000       0.00000000       0.00585771
Au       4.01146957       4.01146957       0.00000000       0.08816832       0.00875900       0.00875900      -0.00000000
Au       4.01146957      -4.01146957      -0.00000000       0.08816832       0.00875900      -0.00875900       0.00000000
Au      -4.01146957       4.01146957       0.00000000       0.08816832      -0.00875900       0.00875900      -0.00000000
Au      -4.01146957      -4.01146957      -0.00000000       0.08816832      -0.00875900      -0.00875900       0.00000000
Au       4.06011317      -0.00000000       3.96426193       0.05755287      -0.00976105      -0.00000000      -0.00178425
Au       4.06011317      -0.00000000      -3.96426193       0.05755287      -0.00976105       0.00000000       0.00178425
Au      -4.06011317      -0.00000000       3.96426193       0.05755287       0.00976105      -0.00000000      -0.00178425
Au      -4.06011317      -0.00000000      -3.96426193       0.05755287       0.00976105      -0.00000000       0.00178425
Au       0.00000000       4.06011317       3.96426193       0.05755287      -0.00000000      -0.00976105      -0.00178425
Au      -0.00000000       4.06011317      -3.96426193       0.05755287       0.00000000      -0.00976105       0.00178425
Au      -0.00000000      -4.06011317       3.96426193       0.05755287      -0.00000000       0.00976105      -0.00178425
Au      -0.00000000      -4.06011317      -3.96426193       0.05755287       0.00000000       0.00976105       0.00178425
Au       2.05594629      -0.00000000       5.95521805       0.01764325       0.00406650      -0.00000000       0.00474646
Au       4.07342970       2.01151666       1.98140318       0.03392125       0.00081715       0.01076479       0.00869878
Au       4.07342970      -2.01151666       1.98140318       0.03392125       0.00081715      -0.01076479       0.00869878
Au       2.05594629      -0.00000000      -5.95521805       0.01764325       0.00406650       0.00000000      -0.00474646
Au       4.07342970       2.01151666      -1.98140318       0.03392125       0.00081715       0.01076479      -0.00869878
Au       4.07342970      -2.01151666      -1.98140318       0.03392125       0.00081715      -0.01076479      -0.00869878
Au      -2.05594629       0.00000000       5.95521805       0.01764325      -0.00406650      -0.00000000       0.00474646
Au      -4.07342970       2.01151666       1.98140318       0.03392125      -0.00081715       0.01076479       0.00869878
Au      -4.07342970      -2.01151666       1.98140318       0.03392125      -0.00081715      -0.01076479       0.00869878
Au      -2.05594629       0.00000000      -5.95521805       0.01764325      -0.00406650      -0.00000000      -0.00474646
Au      -4.07342970       2.01151666      -1.98140318       0.03392125      -0.00081715       0.01076479      -0.00869878
Au      -4.07342970      -2.01151666      -1.98140318       0.03392125      -0.00081715      -0.01076479      -0.00869878
Au       0.00000000       2.05594629       5.95521805       0.01764325      -0.00000000       0.00406650       0.00474646
Au       2.01151666       4.07342970       1.98140318       0.03392125       0.01076479       0.00081715       0.00869878
Au      -2.01151666       4.07342970       1.98140318       0.03392125      -0.01076479       0.00081715       0.00869878
Au       2.05782884       2.05782884       3.99438497       0.00149282      -0.00474438      -0.00474438       0.00523025
Au      -2.05782884       2.05782884       3.99438497       0.00149282       0.00474438      -0.00474438       0.00523025
Au      -0.00000000       2.05594629      -5.95521805       0.01764325       0.00000000       0.00406650      -0.00474646
Au       2.01151666       4.07342970      -1.98140318       0.03392125       0.01076479       0.00081715      -0.00869878
Au      -2.01151666       4.07342970      -1.98140318       0.03392125      -0.01076479       0.00081715      -0.00869878
Au       2.05782884       2.05782884      -3.99438497       0.00149282      -0.00474438      -0.00474438      -0.00523025
Au      -2.05782884       2.05782884      -3.99438497       0.00149282       0.00474438      -0.00474438      -0.00523025
Au      -0.00000000      -2.05594629       5.95521805       0.01764325       0.00000000      -0.00406650       0.00474646
Au       2.01151666      -4.07342970       1.98140318       0.03392125       0.01076479      -0.00081715       0.00869878
Au      -2.01151666      -4.07342970       1.98140318       0.03392125      -0.01076479      -0.00081715       0.00869878
Au       2.05782884      -2.05782884       3.99438497       0.00149282      -0.00474438       0.00474438       0.00523025
Au      -2.05782884      -2.05782884       3.99438497       0.00149282       0.00474438       0.00474438       0.00523025
Au      -0.00000000      -2.05594629      -5.95521805       0.01764325       0.00000000      -0.00406650      -0.00474646
Au       2.01151666      -4.07342970      -1.98140318       0.03392125       0.01076479      -0.00081715      -0.00869878
Au      -2.01151666      -4.07342970      -1.98140318       0.03392125      -0.01076479      -0.00081715      -0.00869878
Au       2.05782884      -2.05782884      -3.99438497       0.00149282      -0.00474438       0.00474438      -0.00523025
Au      -2.05782884      -2.05782884      -3.99438497       0.00149282       0.00474438       0.00474438      -0.00523025
Au       4.11137510       0.00000000       0.00000000       0.02087166      -0.02391490      -0.00000000       0.00000000
Au      -4.11137510      -0.00000000      -0.00000000       0.02087166       0.02391490       0.00000000      -0.00000000
Au       0.00000000       4.11137510       0.00000000       0.02087166       0.00000000      -0.02391490      -0.00000000
Au      -0.00000000      -4.11137510       0.00000000       0.02087166      -0.00000000       0.02391490      -0.00000000
Au      -0.00000000      -0.00000000      11.46272858       0.65698717       0.00000000      -0.00000000      -0.01019830
Au       0.00000000      -0.00000000     -11.46272858       0.65698717      -0.00000000       0.00000000       0.01019830
Au       5.90652347       5.90652347      -0.00000000       0.55337317       0.00219467       0.00219467       0.00000000
Au       5.90652347      -5.90652347       0.00000000       0.55337317       0.00219467      -0.00219467      -0.00000000
Au      -5.90652347       5.90652347      -0.00000000       0.55337317      -0.00219467       0.00219467       0.00000000
Au      -5.90652347      -5.90652347      -0.00000000       0.55337317      -0.00219467      -0.00219467      -0.00000000
Au       5.94687640      -0.00000000       5.87321461       0.45960679       0.00396387       0.00000000      -0.00214546
Au       5.94687640      -0.00000000      -5.87321461       0.45960679       0.00396387      -0.00000000       0.00214546
Au      -5.94687640      -0.00000000       5.87321461       0.45960679      -0.00396387       0.00000000      -0.00214546
Au      -5.94687640      -0.00000000      -5.87321461       0.45960679      -0.00396387       0.00000000       0.00214546
Au      -0.00000000       5.94687640       5.87321461       0.45960679      -0.00000000       0.00396387      -0.00214546
Au      -0.00000000       5.94687640      -5.87321461       0.45960679      -0.00000000       0.00396387       0.00214546
Au       0.00000000      -5.94687640       5.87321461       0.45960679      -0.00000000      -0.00396387      -0.00214546
Au      -0.00000000      -5.94687640      -5.87321461       0.45960679       0.00000000      -0.00396387       0.00214546
Au       4.01714515      -0.00000000       7.82941572       0.37443302       0.00342578       0.00000000       0.01240424
Au       6.00223971       1.99564323       3.93365564       0.36661089       0.00222923       0.00907961      -0.00401385
Au       6.00223971      -1.99564323       3.93365564       0.36661089       0.00222923      -0.00907961      -0.00401385
Au       4.01714515      -0.00000000      -7.82941572       0.37443302       0.00342578       0.00000000      -0.01240424
Au       6.00223971       1.99564323      -3.93365564       0.36661089       0.00222923       0.00907961       0.00401385
Au       6.00223971      -1.99564323      -3.93365564       0.36661089       0.00222923      -0.00907961       0.00401385
Au      -4.01714515      -0.00000000       7.82941572       0.37443302      -0.00342578       0.00000000       0.01240424
Au      -6.00223971       1.99564323       3.93365564       0.36661089      -0.00222923       0.00907961      -0.00401385
Au      -6.00223971      -1.99564323       3.93365564       0.36661089      -0.00222923      -0.00907961      -0.00401385
Au      -4.01714515      -0.00000000      -7.82941572       0.37443302      -0.00342578       0.00000000      -0.01240424
Au      -6.00223971       1.99564323      -3.93365564       0.36661089      -0.00222923       0.00907961       0.00401385
Au      -6.00223971      -1.99564323      -3.93365564       0.36661089      -0.00222923      -0.00907961       0.00401385
Au      -0.00000000       4.01714515       7.82941572       0.37443302       0.00000000       0.00342578       0.01240424
Au       1.99564323       6.00223971       3.93365564       0.36661089       0.00907961       0.00222923      -0.00401385
Au      -1.99564323       6.00223971       3.93365564       0.36661089      -0.00907961       0.00222923      -0.00401385
Au       2.05187906       4.08721364       5.94349334       0.21816989       0.00756261       0.00198286       0.02076628
Au      -2.05187906       4.08721364       5.94349334       0.21816989      -0.00756261       0.00198286       0.02076628
Au      -0.00000000       4.01714515      -7.82941572       0.37443302      -0.00000000       0.00342578      -0.01240424
Au       1.99564323       6.00223971      -3.93365564       0.36661089       0.00907961       0.00222923       0.00401385
Au      -1.99564323       6.00223971      -3.93365564       0.36661089      -0.00907961       0.00222923       0.00401385
Au       2.05187906       4.08721364      -5.94349334       0.21816989       0.00756261       0.00198286      -0.02076628
Au      -2.05187906       4.08721364      -5.94349334       0.21816989      -0.00756261       0.00198286      -0.02076628
Au      -0.00000000      -4.01714515       7.82941572       0.37443302      -0.00000000      -0.00342578       0.01240424
Au       1.99564323      -6.00223971       3.93365564       0.36661089       0.00907961      -0.00222923      -0.00401385
Au      -1.99564323      -6.00223971       3.93365564       0.36661089      -0.00907961      -0.00222923      -0.00401385
Au       2.05187906      -4.08721364       5.94349334       0.21816989       0.00756261      -0.00198286       0.02076628
Au      -2.05187906      -4.08721364       5.94349334       0.21816989      -0.00756261      -0.00198286       0.02076628
Au      -0.00000000      -4.01714515      -7.82941572       0.37443302       0.00000000      -0.00342578      -0.01240424
Au       1.99564323      -6.00223971      -3.93365564       0.36661089       0.00907961      -0.00222923       0.00401385
Au      -1.99564323      -6.00223971      -3.93365564       0.36661089      -0.00907961      -0.00222923       0.00401385
Au       2.05187906      -4.08721364      -5.94349334       0.21816989       0.00756261      -0.00198286      -0.02076628
Au      -2.05187906      -4.08721364      -5.94349334       0.21816989      -0.00756261      -0.00198286      -0.02076628
Au       2.02107531      -0.00000000       9.74479381       0.37856332       0.00001513       0.00000000       0.00043989
Au       5.99093732       4.01361803       1.95567765       0.36475712       0.01252739      -0.01008808       0.01533377
Au       5.99093732      -4.01361803       1.95567765       0.36475712       0.01252739       0.01008808       0.01533377
Au       2.02107531       0.00000000      -9.74479381       0.37856332       0.00001513      -0.00000000      -0.00043989
Au       5.99093732       4.01361803      -1.95567765       0.36475712       0.01252739      -0.01008808      -0.01533377
Au       5.99093732      -4.01361803      -1.95567765       0.36475712       0.01252739       0.01008808      -0.01533377
Au      -2.02107531      -0.00000000       9.74479381       0.37856332      -0.00001513      -0.00000000       0.00043989
Au      -5.99093732       4.01361803       1.95567765       0.36475712      -0.01252739      -0.01008808       0.01533377
Au      -5.99093732      -4.01361803       1.95567765       0.36475712      -0.01252739       0.01008808       0.01533377
Au      -2.02107531       0.00000000      -9.74479381       0.37856332      -0.00001513       0.00000000      -0.00043989
Au      -5.99093732       4.01361803      -1.95567765       0.36475712      -0.01252739      -0.01008808      -0.01533377
Au      -5.99093732      -4.01361803      -1.95567765       0.36475712      -0.01252739       0.01008808      -0.01533377
Au       0.00000000       2.02107531       9.74479381       0.37856332      -0.00000000       0.00001513       0.00043989
Au       4.01361803       5.99093732       1.95567765       0.36475712      -0.01008808       0.01252739       0.01533377
Au      -4.01361803       5.99093732       1.95567765       0.36475712       0.01008808       0.01252739       0.01533377
Au       4.08721364       2.05187906       5.94349334       0.21816989       0.00198286       0.00756261       0.02076628
Au      -4.08721364       2.05187906       5.94349334       0.21816989      -0.00198286       0.00756261       0.02076628
Au      -0.00000000       2.02107531      -9.74479381       0.37856332      -0.00000000       0.00001513      -0.00043989
Au       4.01361803       5.99093732      -1.95567765       0.36475712      -0.01008808       0.01252739      -0.01533377
Au      -4.01361803       5.99093732      -1.95567765       0.36475712       0.01008808       0.01252739      -0.01533377
Au       4.08721364       2.05187906      -5.94349334       0.21816989       0.00198286       0.00756261      -0.02076628
Au      -4.08721364       2.05187906      -5.94349334       0.21816989      -0.00198286       0.00756261      -0.02076628
Au       0.00000000      -2.02107531       9.74479381       0.37856332      -0.00000000      -0.00001513       0.00043989
Au       4.01361803      -5.99093732       1.95567765       0.36475712      -0.01008808      -0.01252739       0.01533377
Au      -4.01361803      -5.99093732       1.95567765       0.36475712       0.01008808      -0.01252739       0.01533377
Au       4.08721364      -2.05187906       5.94349334       0.21816989       0.00198286      -0.00756261       0.02076628
Au      -4.08721364      -2.05187906       5.94349334       0.21816989      -0.00198286      -0.00756261       0.02076628
Au      -0.00000000      -2.02107531      -9.74479381       0.37856332      -0.00000000      -0.00001513      -0.00043989
Au       4.01361803      -5.99093732      -1.95567765       0.36475712      -0.01008808      -0.01252739      -0.01533377
Au      -4.01361803      -5.99093732      -1.95567765       0.36475712       0.01008808      -0.01252739      -0.01533377
Au       4.08721364      -2.05187906      -5.94349334       0.21816989       0.00198286      -0.00756261      -0.02076628
Au      -4.08721364      -2.05187906      -5.94349334       0.21816989      -0.00198286      -0.00756261      -0.02076628
Au       2.06041771       2.06041771       7.89034845       0.21621514       0.00080734       0.00080734       0.01094637
Au       2.06041771      -2.06041771       7.89034845       0.21621514       0.00080734      -0.00080734       0.01094637
Au       4.06237327       4.06237327       3.95515081       0.21395433       0.00975075       0.00975075       0.01711722
Au       4.06237327      -4.06237327       3.95515081       0.21395433       0.00975075      -0.00975075       0.01711722
Au       2.06041771       2.06041771      -7.89034845       0.21621514       0.00080734       0.00080734      -0.01094637
Au       2.06041771      -2.06041771      -7.89034845       0.21621514       0.00080734      -0.00080734      -0.01094637
Au       4.06237327       4.06237327      -3.95515081       0.21395433       0.00975075       0.00975075      -0.01711722
Au       4.06237327      -4.06237327      -3.95515081       0.21395433       0.00975075      -0.00975075      -0.01711722
Au      -2.06041771       2.06041771       7.89034845       0.21621514      -0.00080734       0.00080734       0.01094637
Au      -2.06041771      -2.06041771       7.89034845       0.21621514      -0.00080734      -0.00080734       0.01094637
Au      -4.06237327       4.06237327       3.95515081       0.21395433      -0.00975075       0.00975075       0.01711722
Au      -4.06237327      -4.06237327       3.95515081       0.21395433      -0.00975075      -0.00975075       0.01711722
Au      -2.06041771       2.06041771      -7.89034845       0.21621514      -0.00080734       0.00080734      -0.01094637
Au      -2.06041771      -2.06041771      -7.89034845       0.21621514      -0.00080734      -0.00080734      -0.01094637
Au      -4.06237327       4.06237327      -3.95515081       0.21395433      -0.00975075       0.00975075      -0.01711722
Au      -4.06237327      -4.06237327      -3.95515081       0.21395433      -0.00975075      -0.00975075      -0.01711722
Au       6.09065494      -0.00000000      -1.98475138       0.27360753      -0.01545935      -0.00000000       0.00509665
Au       6.08028061      -2.01816345      -0.00000000       0.27149312      -0.00202236       0.00584954       0.00000000
Au       6.08028061       2.01816345      -0.00000000       0.27149312      -0.00202236      -0.00584954      -0.00000000
Au       6.09065494       0.00000000       1.98475138       0.27360753      -0.01545935      -0.00000000      -0.00509665
Au      -6.09065494       0.00000000      -1.98475138       0.27360753       0.01545935      -0.00000000       0.00509665
Au      -6.08028061      -2.01816345      -0.00000000       0.27149312       0.00202236       0.00584954      -0.00000000
Au      -6.08028061       2.01816345      -0.00000000       0.27149312       0.00202236      -0.00584954       0.00000000
Au      -6.09065494       0.00000000       1.98475138       0.27360753       0.01545935       0.00000000      -0.00509665
Au      -0.00000000       6.09065494      -1.98475138       0.27360753       0.00000000      -0.01545935       0.00509665
Au      -2.01816345       6.08028061       0.00000000       0.27149312       0.00584954      -0.00202236      -0.00000000
Au       2.01816345       6.08028061       0.00000000       0.27149312      -0.00584954      -0.00202236      -0.00000000
Au       0.00000000       6.09065494       1.98475138       0.27360753      -0.00000000      -0.01545935      -0.00509665
Au      -0.00000000      -6.09065494      -1.98475138       0.27360753      -0.00000000       0.01545935       0.00509665
Au      -2.01816345      -6.08028061       0.00000000       0.27149312       0.00584954       0.00202236      -0.00000000
Au       2.01816345      -6.08028061      -0.00000000       0.27149312      -0.00584954       0.00202236       0.00000000
Au       0.00000000      -6.09065494       1.98475138       0.27360753      -0.00000000       0.01545935      -0.00509665
