38
Properties=species:S:1:pos:R:3:energies:R:1:forces:R:3 energy=13.255847300180388 free_energy=13.255847300180388 pbc="F F F"
Au      -1.94726731      -3.89510092      -0.00000000       0.45505236      -0.00145768       0.00438706       0.00000000
Au       1.94726731      -3.89510092      -0.00000000       0.45505236       0.00145768       0.00438706       0.00000000
Au      -1.94726731       3.89510092       0.00000000       0.45505236      -0.00145768      -0.00438706      -0.00000000
Au       1.94726731       3.89510092      -0.00000000       0.45505236       0.00145768      -0.00438706      -0.00000000
Au      -1.94726731      -0.00000000      -3.89510092       0.45505236      -0.00145768      -0.00000000       0.00438706
Au       1.94726731      -0.00000000      -3.89510092       0.45505236       0.00145768      -0.00000000       0.00438706
Au       0.00000000      -1.94726731      -3.89510092       0.45505236      -0.00000000      -0.00145768       0.00438706
Au       0.00000000       1.94726731      -3.89510092       0.45505236       0.00000000       0.00145768       0.00438706
Au      -1.94726731       0.00000000       3.89510092       0.45505236      -0.00145768      -0.00000000      -0.00438706
Au       1.94726731      -0.00000000       3.89510092       0.45505236       0.00145768       0.00000000      -0.00438706
Au       0.00000000      -1.94726731       3.89510092       0.45505236      -0.00000000      -0.00145768      -0.00438706
Au       0.00000000       1.94726731       3.89510092       0.45505236       0.00000000       0.00145768      -0.00438706
Au      -3.89510092      -1.94726731       0.00000000       0.45505236       0.00438706      -0.00145768       0.00000000
Au       3.89510092      -1.94726731      -0.00000000       0.45505236      -0.00438706      -0.00145768       0.00000000
Au      -3.89510092       1.94726731       0.00000000       0.45505236       0.00438706       0.00145768      -0.00000000
Au       3.89510092       1.94726731      -0.00000000       0.45505236      -0.00438706       0.00145768       0.00000000
Au      -3.89510092       0.00000000      -1.94726731       0.45505236       0.00438706       0.00000000      -0.00145768
Au       3.89510092      -0.00000000      -1.94726731       0.45505236      -0.00438706      -0.00000000      -0.00145768
Au       0.00000000      -3.89510092      -1.94726731       0.45505236       0.00000000       0.00438706      -0.00145768
Au       0.00000000       3.89510092      -1.94726731       0.45505236      -0.00000000      -0.00438706      -0.00145768
Au      -3.89510092       0.00000000       1.94726731       0.45505236       0.00438706      -0.00000000       0.00145768
Au       3.89510092       0.00000000       1.94726731       0.45505236      -0.00438706      -0.00000000       0.00145768
Au       0.00000000      -3.89510092       1.94726731       0.45505236       0.00000000       0.00438706       0.00145768
Au      -0.00000000       3.89510092       1.94726731       0.45505236       0.00000000      -0.00438706       0.00145768
Au      -2.04956315      -2.04956315      -2.04956315       0.23364605      -0.00161166      -0.00161166      -0.00161166
Au      -2.04956315      -2.04956315       2.04956315       0.23364605      -0.00161166      -0.00161166       0.00161166
Au       2.04956315      -2.04956315      -2.04956315       0.23364605       0.00161166      -0.00161166      -0.00161166
Au       2.04956315      -2.04956315       2.04956315       0.23364605       0.00161166      -0.00161166       0.00161166
Au      -2.04956315       2.04956315      -2.04956315       0.23364605      -0.00161166       0.00161166      -0.00161166
Au      -2.04956315       2.04956315       2.04956315       0.23364605      -0.00161166       0.00161166       0.00161166
Au       2.04956315       2.04956315      -2.04956315       0.23364605       0.00161166       0.00161166      -0.00161166
Au       2.04956315       2.04956315       2.04956315       0.23364605       0.00161166       0.00161166       0.00161166
Au      -0.00000000      -1.99571749      -0.00000000       0.07757038       0.00000000      -0.00347861       0.00000000
Au       1.99571749       0.00000000      -0.00000000       0.07757038       0.00347861      -0.00000000       0.00000000
Au      -1.99571749       0.00000000      -0.00000000       0.07757038      -0.00347861      -0.00000000       0.00000000
Au      -0.00000000       1.99571749       0.00000000       0.07757038       0.00000000       0.00347861      -0.00000000
Au       0.00000000       0.00000000      -1.99571749       0.07757038      -0.00000000      -0.00000000      -0.00347861
Au      -0.00000000       0.00000000       1.99571749       0.07757038       0.00000000      -0.00000000       0.00347861
