147
Properties=species:S:1:pos:R:3:energies:R:1:forces:R:3 energy=33.641323072238094 free_energy=33.641323072238094 pbc="F F F"
Au      -0.00000000       0.00000000       0.00000000       0.33365263       0.00000000      -0.00000000      -0.00000000
Au      -1.42889695       2.31200383       0.00000000       0.05319972       0.00280020      -0.00453082      -0.00000000
Au       1.42889695       2.31200383       0.00000000       0.05319972      -0.00280020      -0.00453082      -0.00000000
Au      -1.42889695      -2.31200383      -0.00000000       0.05319972       0.00280020       0.00453082       0.00000000
Au       1.42889695      -2.31200383       0.00000000       0.05319972      -0.00280020       0.00453082       0.00000000
Au       0.00000000      -1.42889695       2.31200383       0.05319972       0.00000000       0.00280020      -0.00453082
Au      -0.00000000       1.42889695       2.31200383       0.05319972       0.00000000      -0.00280020      -0.00453082
Au      -0.00000000      -1.42889695      -2.31200383       0.05319972       0.00000000       0.00280020       0.00453082
Au      -0.00000000       1.42889695      -2.31200383       0.05319972       0.00000000      -0.00280020       0.00453082
Au       2.31200383       0.00000000      -1.42889695       0.05319972      -0.00453082      -0.00000000       0.00280020
Au       2.31200383       0.00000000       1.42889695       0.05319972      -0.00453082      -0.00000000      -0.00280020
Au      -2.31200383      -0.00000000      -1.42889695       0.05319972       0.00453082      -0.00000000       0.00280020
Au      -2.31200383       0.00000000       1.42889695       0.05319972       0.00453082      -0.00000000      -0.00280020
Au      -2.86287005       4.63222105       0.00000000       0.12903878      -0.01657709       0.02682230       0.00000000
Au       2.86287005       4.63222105      -0.00000000       0.12903878       0.01657709       0.02682230      -0.00000000
Au      -2.86287005      -4.63222105      -0.00000000       0.12903878      -0.01657709      -0.02682230       0.00000000
Au       2.86287005      -4.63222105       0.00000000       0.12903878       0.01657709      -0.02682230      -0.00000000
Au      -0.00000000      -2.86287005       4.63222105       0.12903878       0.00000000      -0.01657709       0.02682230
Au       0.00000000       2.86287005       4.63222105       0.12903878      -0.00000000       0.01657709       0.02682230
Au      -0.00000000      -2.86287005      -4.63222105       0.12903878       0.00000000      -0.01657709      -0.02682230
Au       0.00000000       2.86287005      -4.63222105       0.12903878      -0.00000000       0.01657709      -0.02682230
Au       4.63222105       0.00000000      -2.86287005       0.12903878       0.02682230       0.00000000      -0.01657709
Au       4.63222105      -0.00000000       2.86287005       0.12903878       0.02682230      -0.00000000       0.01657709
Au      -4.63222105      -0.00000000      -2.86287005       0.12903878      -0.02682230      -0.00000000      -0.01657709
Au      -4.63222105      -0.00000000       2.86287005       0.12903878      -0.02682230      -0.00000000       0.01657709
Au      -0.00000000       4.73020244      -0.00000000       0.04169003      -0.00000000       0.03405296      -0.00000000
Au       0.00000000      -4.73020244      -0.00000000       0.04169003      -0.00000000      -0.03405296      -0.00000000
Au      -1.46171294      -3.82681416       2.36510122       0.04169003      -0.01052294      -0.02754942       0.01702648
Au       1.46171294      -3.82681416       2.36510122       0.04169003       0.01052294      -0.02754942       0.01702648
Au      -1.46171294       3.82681416       2.36510122       0.04169003      -0.01052294       0.02754942       0.01702648
Au       1.46171294       3.82681416       2.36510122       0.04169003       0.01052294       0.02754942       0.01702648
Au      -0.00000000      -0.00000000       4.73020244       0.04169003      -0.00000000       0.00000000       0.03405296
Au      -1.46171294      -3.82681416      -2.36510122       0.04169003      -0.01052294      -0.02754942      -0.01702648
Au       1.46171294      -3.82681416      -2.36510122       0.04169003       0.01052294      -0.02754942      -0.01702648
Au      -1.46171294       3.82681416      -2.36510122       0.04169003      -0.01052294       0.02754942      -0.01702648
Au       1.46171294       3.82681416      -2.36510122       0.04169003       0.01052294       0.02754942      -0.01702648
Au       0.00000000       0.00000000      -4.73020244       0.04169003       0.00000000       0.00000000      -0.03405296
Au       3.82681416       2.36510122      -1.46171294       0.04169003       0.02754942       0.01702648      -0.01052294
Au       3.82681416      -2.36510122      -1.46171294       0.04169003       0.02754942      -0.01702648      -0.01052294
Au       2.36510122      -1.46171294      -3.82681416       0.04169003       0.01702648      -0.01052294      -0.02754942
Au       2.36510122       1.46171294      -3.82681416       0.04169003       0.01702648       0.01052294      -0.02754942
Au       3.82681416       2.36510122       1.46171294       0.04169003       0.02754942       0.01702648       0.01052294
Au       3.82681416      -2.36510122       1.46171294       0.04169003       0.02754942      -0.01702648       0.01052294
Au       2.36510122      -1.46171294       3.82681416       0.04169003       0.01702648      -0.01052294       0.02754942
Au       2.36510122       1.46171294       3.82681416       0.04169003       0.01702648       0.01052294       0.02754942
Au       4.73020244       0.00000000      -0.00000000       0.04169003       0.03405296      -0.00000000       0.00000000
Au      -3.82681416       2.36510122      -1.46171294       0.04169003      -0.02754942       0.01702648      -0.01052294
Au      -3.82681416      -2.36510122      -1.46171294       0.04169003      -0.02754942      -0.01702648      -0.01052294
Au      -2.36510122      -1.46171294      -3.82681416       0.04169003      -0.01702648      -0.01052294      -0.02754942
Au      -2.36510122       1.46171294      -3.82681416       0.04169003      -0.01702648       0.01052294      -0.02754942
Au      -3.82681416       2.36510122       1.46171294       0.04169003      -0.02754942       0.01702648       0.01052294
Au      -3.82681416      -2.36510122       1.46171294       0.04169003      -0.02754942      -0.01702648       0.01052294
Au      -2.36510122      -1.46171294       3.82681416       0.04169003      -0.01702648      -0.01052294       0.02754942
Au      -2.36510122       1.46171294       3.82681416       0.04169003      -0.01702648       0.01052294       0.02754942
Au      -4.73020244      -0.00000000       0.00000000       0.04169003      -0.03405296       0.00000000      -0.00000000
Au      -4.24516849       6.86882691       0.00000000       0.49380738      -0.00340320       0.00550649      -0.00000000
Au       4.24516849       6.86882691      -0.00000000       0.49380738       0.00340320       0.00550649      -0.00000000
Au      -4.24516849      -6.86882691       0.00000000       0.49380738      -0.00340320      -0.00550649      -0.00000000
Au       4.24516849      -6.86882691       0.00000000       0.49380738       0.00340320      -0.00550649      -0.00000000
Au      -0.00000000      -4.24516849       6.86882691       0.49380738       0.00000000      -0.00340320       0.00550649
Au      -0.00000000       4.24516849       6.86882691       0.49380738       0.00000000       0.00340320       0.00550649
Au      -0.00000000      -4.24516849      -6.86882691       0.49380738       0.00000000      -0.00340320      -0.00550649
Au       0.00000000       4.24516849      -6.86882691       0.49380738       0.00000000       0.00340320      -0.00550649
Au       6.86882691       0.00000000      -4.24516849       0.49380738       0.00550649       0.00000000      -0.00340320
Au       6.86882691      -0.00000000       4.24516849       0.49380738       0.00550649       0.00000000       0.00340320
Au      -6.86882691       0.00000000      -4.24516849       0.49380738      -0.00550649      -0.00000000      -0.00340320
Au      -6.86882691      -0.00000000       4.24516849       0.49380738      -0.00550649      -0.00000000       0.00340320
Au       1.45114864       7.01540793       0.00000000       0.31946188       0.02598469      -0.02426429      -0.00000000
Au       1.45114864      -7.01540793      -0.00000000       0.31946188       0.02598469       0.02426429      -0.00000000
Au      -1.44230595      -5.22715465       4.68170788       0.31946188       0.02049042       0.02765993       0.00888991
Au       1.44230595      -5.22715465       4.68170788       0.31946188      -0.02049042       0.02765993       0.00888991
Au      -1.44230595       5.22715465       4.68170788       0.31946188       0.02049042      -0.02765993       0.00888991
Au       1.44230595       5.22715465       4.68170788       0.31946188      -0.02049042      -0.02765993       0.00888991
Au      -0.00000000       1.45114864       7.01540793       0.31946188       0.00000000       0.02598469      -0.02426429
Au      -1.44230595      -5.22715465      -4.68170788       0.31946188       0.02049042       0.02765993      -0.00888991
Au       1.44230595      -5.22715465      -4.68170788       0.31946188      -0.02049042       0.02765993      -0.00888991
Au      -1.44230595       5.22715465      -4.68170788       0.31946188       0.02049042      -0.02765993      -0.00888991
Au       1.44230595       5.22715465      -4.68170788       0.31946188      -0.02049042      -0.02765993      -0.00888991
Au      -0.00000000       1.45114864      -7.01540793       0.31946188      -0.00000000       0.02598469       0.02426429
Au       6.12401383       2.33370005      -2.89345459       0.31946188      -0.01160051      -0.03315420      -0.00549427
Au       6.12401383      -2.33370005      -2.89345459       0.31946188      -0.01160051       0.03315420      -0.00549427
Au       4.68170788      -1.44230595      -5.22715465       0.31946188       0.00888991       0.02049042       0.02765993
Au       4.68170788       1.44230595      -5.22715465       0.31946188       0.00888991      -0.02049042       0.02765993
Au       6.12401383       2.33370005       2.89345459       0.31946188      -0.01160051      -0.03315420       0.00549427
Au       6.12401383      -2.33370005       2.89345459       0.31946188      -0.01160051       0.03315420       0.00549427
Au       4.68170788      -1.44230595       5.22715465       0.31946188       0.00888991       0.02049042      -0.02765993
Au       4.68170788       1.44230595       5.22715465       0.31946188       0.00888991      -0.02049042      -0.02765993
Au       7.01540793       0.00000000       1.45114864       0.31946188      -0.02426429      -0.00000000       0.02598469
Au      -6.12401383       2.33370005      -2.89345459       0.31946188       0.01160051      -0.03315420      -0.00549427
Au      -6.12401383      -2.33370005      -2.89345459       0.31946188       0.01160051       0.03315420      -0.00549427
Au      -4.68170788      -1.44230595      -5.22715465       0.31946188      -0.00888991       0.02049042       0.02765993
Au      -4.68170788       1.44230595      -5.22715465       0.31946188      -0.00888991      -0.02049042       0.02765993
Au      -6.12401383       2.33370005       2.89345459       0.31946188       0.01160051      -0.03315420       0.00549427
Au      -6.12401383      -2.33370005       2.89345459       0.31946188       0.01160051       0.03315420       0.00549427
Au      -4.68170788      -1.44230595       5.22715465       0.31946188      -0.00888991       0.02049042      -0.02765993
Au      -4.68170788       1.44230595       5.22715465       0.31946188      -0.00888991      -0.02049042      -0.02765993
Au      -7.01540793       0.00000000       1.45114864       0.31946188       0.02426429      -0.00000000       0.02598469
Au      -1.45114864       7.01540793       0.00000000       0.31946188      -0.02598469      -0.02426429       0.00000000
Au      -1.45114864      -7.01540793      -0.00000000       0.31946188      -0.02598469       0.02426429       0.00000000
Au      -2.89345459      -6.12401383       2.33370005       0.31946188      -0.00549427       0.01160051      -0.03315420
Au       2.89345459      -6.12401383       2.33370005       0.31946188       0.00549427       0.01160051      -0.03315420
Au      -2.89345459       6.12401383       2.33370005       0.31946188      -0.00549427      -0.01160051      -0.03315420
Au       2.89345459       6.12401383       2.33370005       0.31946188       0.00549427      -0.01160051      -0.03315420
Au      -0.00000000      -1.45114864       7.01540793       0.31946188       0.00000000      -0.02598469      -0.02426429
Au      -2.89345459      -6.12401383      -2.33370005       0.31946188      -0.00549427       0.01160051       0.03315420
Au       2.89345459      -6.12401383      -2.33370005       0.31946188       0.00549427       0.01160051       0.03315420
Au      -2.89345459       6.12401383      -2.33370005       0.31946188      -0.00549427      -0.01160051       0.03315420
Au       2.89345459       6.12401383      -2.33370005       0.31946188       0.00549427      -0.01160051       0.03315420
Au       0.00000000      -1.45114864      -7.01540793       0.31946188       0.00000000      -0.02598469       0.02426429
Au       5.22715465       4.68170788      -1.44230595       0.31946188      -0.02765993       0.00888991       0.02049042
Au       5.22715465      -4.68170788      -1.44230595       0.31946188      -0.02765993      -0.00888991       0.02049042
Au       2.33370005      -2.89345459      -6.12401383       0.31946188      -0.03315420      -0.00549427       0.01160051
Au       2.33370005       2.89345459      -6.12401383       0.31946188      -0.03315420       0.00549427       0.01160051
Au       5.22715465       4.68170788       1.44230595       0.31946188      -0.02765993       0.00888991      -0.02049042
Au       5.22715465      -4.68170788       1.44230595       0.31946188      -0.02765993      -0.00888991      -0.02049042
Au       2.33370005      -2.89345459       6.12401383       0.31946188      -0.03315420      -0.00549427      -0.01160051
Au       2.33370005       2.89345459       6.12401383       0.31946188      -0.03315420       0.00549427      -0.01160051
Au       7.01540793       0.00000000      -1.45114864       0.31946188      -0.02426429      -0.00000000      -0.02598469
Au      -5.22715465       4.68170788      -1.44230595       0.31946188       0.02765993       0.00888991       0.02049042
Au      -5.22715465      -4.68170788      -1.44230595       0.31946188       0.02765993      -0.00888991       0.02049042
Au      -2.33370005      -2.89345459      -6.12401383       0.31946188       0.03315420      -0.00549427       0.01160051
Au      -2.33370005       2.89345459      -6.12401383       0.31946188       0.03315420       0.00549427       0.01160051
Au      -5.22715465       4.68170788       1.44230595       0.31946188       0.02765993       0.00888991      -0.02049042
Au      -5.22715465      -4.68170788       1.44230595       0.31946188       0.02765993      -0.00888991      -0.02049042
Au      -2.33370005      -2.89345459       6.12401383       0.31946188       0.03315420      -0.00549427      -0.01160051
Au      -2.33370005       2.89345459       6.12401383       0.31946188       0.03315420       0.00549427      -0.01160051
Au      -7.01540793       0.00000000      -1.45114864       0.31946188       0.02426429      -0.00000000      -0.02598469
Au      -0.00000000       6.22844348      -2.37905371       0.23883531       0.00000000      -0.04063212       0.01552009
Au       3.84938977       3.84938977      -3.84938977       0.23883531      -0.02511203      -0.02511203       0.02511203
Au       2.37905371      -0.00000000      -6.22844348       0.23883531      -0.01552009      -0.00000000       0.04063212
Au      -2.37905371      -0.00000000      -6.22844348       0.23883531       0.01552009      -0.00000000       0.04063212
Au      -3.84938977       3.84938977      -3.84938977       0.23883531       0.02511203      -0.02511203       0.02511203
Au      -3.84938977       3.84938977       3.84938977       0.23883531       0.02511203      -0.02511203      -0.02511203
Au      -0.00000000       6.22844348       2.37905371       0.23883531      -0.00000000      -0.04063212      -0.01552009
Au       3.84938977       3.84938977       3.84938977       0.23883531      -0.02511203      -0.02511203      -0.02511203
Au       6.22844348       2.37905371      -0.00000000       0.23883531      -0.04063212      -0.01552009      -0.00000000
Au       6.22844348      -2.37905371      -0.00000000       0.23883531      -0.04063212       0.01552009       0.00000000
Au       3.84938977      -3.84938977      -3.84938977       0.23883531      -0.02511203       0.02511203       0.02511203
Au       0.00000000      -6.22844348      -2.37905371       0.23883531       0.00000000       0.04063212       0.01552009
Au      -3.84938977      -3.84938977      -3.84938977       0.23883531       0.02511203       0.02511203       0.02511203
Au      -6.22844348      -2.37905371       0.00000000       0.23883531       0.04063212       0.01552009      -0.00000000
Au      -6.22844348       2.37905371      -0.00000000       0.23883531       0.04063212      -0.01552009      -0.00000000
Au      -0.00000000      -6.22844348       2.37905371       0.23883531       0.00000000       0.04063212      -0.01552009
Au       3.84938977      -3.84938977       3.84938977       0.23883531      -0.02511203       0.02511203      -0.02511203
Au       2.37905371      -0.00000000       6.22844348       0.23883531      -0.01552009      -0.00000000      -0.04063212
Au      -2.37905371       0.00000000       6.22844348       0.23883531       0.01552009       0.00000000      -0.04063212
Au      -3.84938977      -3.84938977       3.84938977       0.23883531       0.02511203       0.02511203      -0.02511203
