309
Properties=species:S:1:pos:R:3:energies:R:1:forces:R:3 energy=55.617414713055986 free_energy=55.617414713055986 pbc="F F F"
Au       0.00000000       0.00000000      -0.00000000       0.35022927      -0.00000000      -0.00000000       0.00000000
Au      -1.42667301       2.30840542      -0.00000000       0.07339964      -0.00956886       0.01548274       0.00000000
Au       1.42667301       2.30840542      -0.00000000       0.07339964       0.00956886       0.01548274       0.00000000
Au      -1.42667301      -2.30840542      -0.00000000       0.07339964      -0.00956886      -0.01548274       0.00000000
Au       1.42667301      -2.30840542      -0.00000000       0.07339964       0.00956886      -0.01548274       0.00000000
Au       0.00000000      -1.42667301       2.30840542       0.07339964      -0.00000000      -0.00956886       0.01548274
Au       0.00000000       1.42667301       2.30840542       0.07339964      -0.00000000       0.00956886       0.01548274
Au       0.00000000      -1.42667301      -2.30840542       0.07339964      -0.00000000      -0.00956886      -0.01548274
Au       0.00000000       1.42667301      -2.30840542       0.07339964      -0.00000000       0.00956886      -0.01548274
Au       2.30840542       0.00000000      -1.42667301       0.07339964       0.01548274      -0.00000000      -0.00956886
Au       2.30840542       0.00000000       1.42667301       0.07339964       0.01548274      -0.00000000       0.00956886
Au      -2.30840542       0.00000000      -1.42667301       0.07339964      -0.01548274      -0.00000000      -0.00956886
Au      -2.30840542       0.00000000       1.42667301       0.07339964      -0.01548274      -0.00000000       0.00956886
Au      -2.85625898       4.62152410      -0.00000000       0.03879304       0.00227328      -0.00367824       0.00000000
Au       2.85625898       4.62152410       0.00000000       0.03879304      -0.00227328      -0.00367824      -0.00000000
Au      -2.85625898      -4.62152410      -0.00000000       0.03879304       0.00227328       0.00367824       0.00000000
Au       2.85625898      -4.62152410       0.00000000       0.03879304      -0.00227328       0.00367824      -0.00000000
Au       0.00000000      -2.85625898       4.62152410       0.03879304      -0.00000000       0.00227328      -0.00367824
Au       0.00000000       2.85625898       4.62152410       0.03879304      -0.00000000      -0.00227328      -0.00367824
Au      -0.00000000      -2.85625898      -4.62152410       0.03879304       0.00000000       0.00227328       0.00367824
Au      -0.00000000       2.85625898      -4.62152410       0.03879304       0.00000000      -0.00227328       0.00367824
Au       4.62152410      -0.00000000      -2.85625898       0.03879304      -0.00367824       0.00000000       0.00227328
Au       4.62152410       0.00000000       2.85625898       0.03879304      -0.00367824      -0.00000000      -0.00227328
Au      -4.62152410      -0.00000000      -2.85625898       0.03879304       0.00367824       0.00000000       0.00227328
Au      -4.62152410       0.00000000       2.85625898       0.03879304       0.00367824      -0.00000000      -0.00227328
Au      -0.00000000       4.70361646       0.00000000       0.01350491       0.00000000      -0.00558281      -0.00000000
Au      -0.00000000      -4.70361646      -0.00000000       0.01350491       0.00000000       0.00558281       0.00000000
Au      -1.45349742      -3.80530565       2.35180823       0.01350491       0.00172518       0.00451659      -0.00279140
Au       1.45349742      -3.80530565       2.35180823       0.01350491      -0.00172518       0.00451659      -0.00279140
Au      -1.45349742       3.80530565       2.35180823       0.01350491       0.00172518      -0.00451659      -0.00279140
Au       1.45349742       3.80530565       2.35180823       0.01350491      -0.00172518      -0.00451659      -0.00279140
Au       0.00000000      -0.00000000       4.70361646       0.01350491       0.00000000       0.00000000      -0.00558281
Au      -1.45349742      -3.80530565      -2.35180823       0.01350491       0.00172518       0.00451659       0.00279140
Au       1.45349742      -3.80530565      -2.35180823       0.01350491      -0.00172518       0.00451659       0.00279140
Au      -1.45349742       3.80530565      -2.35180823       0.01350491       0.00172518      -0.00451659       0.00279140
Au       1.45349742       3.80530565      -2.35180823       0.01350491      -0.00172518      -0.00451659       0.00279140
Au      -0.00000000      -0.00000000      -4.70361646       0.01350491       0.00000000       0.00000000       0.00558281
Au       3.80530565       2.35180823      -1.45349742       0.01350491      -0.00451659      -0.00279140       0.00172518
Au       3.80530565      -2.35180823      -1.45349742       0.01350491      -0.00451659       0.00279140       0.00172518
Au       2.35180823      -1.45349742      -3.80530565       0.01350491      -0.00279140       0.00172518       0.00451659
Au       2.35180823       1.45349742      -3.80530565       0.01350491      -0.00279140      -0.00172518       0.00451659
Au       3.80530565       2.35180823       1.45349742       0.01350491      -0.00451659      -0.00279140      -0.00172518
Au       3.80530565      -2.35180823       1.45349742       0.01350491      -0.00451659       0.00279140      -0.00172518
Au       2.35180823      -1.45349742       3.80530565       0.01350491      -0.00279140       0.00172518      -0.00451659
Au       2.35180823       1.45349742       3.80530565       0.01350491      -0.00279140      -0.00172518      -0.00451659
Au       4.70361646      -0.00000000       0.00000000       0.01350491      -0.00558281       0.00000000      -0.00000000
Au      -3.80530565       2.35180823      -1.45349742       0.01350491       0.00451659      -0.00279140       0.00172518
Au      -3.80530565      -2.35180823      -1.45349742       0.01350491       0.00451659       0.00279140       0.00172518
Au      -2.35180823      -1.45349742      -3.80530565       0.01350491       0.00279140       0.00172518       0.00451659
Au      -2.35180823       1.45349742      -3.80530565       0.01350491       0.00279140      -0.00172518       0.00451659
Au      -3.80530565       2.35180823       1.45349742       0.01350491       0.00451659      -0.00279140      -0.00172518
Au      -3.80530565      -2.35180823       1.45349742       0.01350491       0.00451659       0.00279140      -0.00172518
Au      -2.35180823      -1.45349742       3.80530565       0.01350491       0.00279140       0.00172518      -0.00451659
Au      -2.35180823       1.45349742       3.80530565       0.01350491       0.00279140      -0.00172518      -0.00451659
Au      -4.70361646       0.00000000       0.00000000       0.01350491       0.00558281       0.00000000      -0.00000000
Au      -4.29737741       6.95330271      -0.00000000       0.11392456       0.00445276      -0.00720472       0.00000000
Au       4.29737741       6.95330271       0.00000000       0.11392456      -0.00445276      -0.00720472      -0.00000000
Au      -4.29737741      -6.95330271       0.00000000       0.11392456       0.00445276       0.00720472      -0.00000000
Au       4.29737741      -6.95330271       0.00000000       0.11392456      -0.00445276       0.00720472       0.00000000
Au      -0.00000000      -4.29737741       6.95330271       0.11392456       0.00000000       0.00445276      -0.00720472
Au       0.00000000       4.29737741       6.95330271       0.11392456      -0.00000000      -0.00445276      -0.00720472
Au       0.00000000      -4.29737741      -6.95330271       0.11392456       0.00000000       0.00445276       0.00720472
Au      -0.00000000       4.29737741      -6.95330271       0.11392456       0.00000000      -0.00445276       0.00720472
Au       6.95330271      -0.00000000      -4.29737741       0.11392456      -0.00720472       0.00000000       0.00445276
Au       6.95330271      -0.00000000       4.29737741       0.11392456      -0.00720472       0.00000000      -0.00445276
Au      -6.95330271      -0.00000000      -4.29737741       0.11392456       0.00720472       0.00000000       0.00445276
Au      -6.95330271       0.00000000       4.29737741       0.11392456       0.00720472      -0.00000000      -0.00445276
Au       1.43700412       7.08420563       0.00000000       0.04406022       0.00310364      -0.02824458       0.00000000
Au       1.43700412      -7.08420563       0.00000000       0.04406022       0.00310364       0.02824458       0.00000000
Au      -1.47063787      -5.28718405       4.70466357       0.04406022       0.01027987       0.02380942      -0.01161139
Au       1.47063787      -5.28718405       4.70466357       0.04406022      -0.01027987       0.02380942      -0.01161139
Au      -1.47063787       5.28718405       4.70466357       0.04406022       0.01027987      -0.02380942      -0.01161139
Au       1.47063787       5.28718405       4.70466357       0.04406022      -0.01027987      -0.02380942      -0.01161139
Au       0.00000000       1.43700412       7.08420563       0.04406022      -0.00000000       0.00310364      -0.02824458
Au      -1.47063787      -5.28718405      -4.70466357       0.04406022       0.01027987       0.02380942       0.01161139
Au       1.47063787      -5.28718405      -4.70466357       0.04406022      -0.01027987       0.02380942       0.01161139
Au      -1.47063787       5.28718405      -4.70466357       0.04406022       0.01027987      -0.02380942       0.01161139
Au       1.47063787       5.28718405      -4.70466357       0.04406022      -0.01027987      -0.02380942       0.01161139
Au      -0.00000000       1.43700412      -7.08420563       0.04406022      -0.00000000       0.00310364       0.02824458
Au       6.17530144       2.37954206      -2.90764199       0.04406022      -0.02189127      -0.01663318       0.00717624
Au       6.17530144      -2.37954206      -2.90764199       0.04406022      -0.02189127       0.01663318       0.00717624
Au       4.70466357      -1.47063787      -5.28718405       0.04406022      -0.01161139       0.01027987       0.02380942
Au       4.70466357       1.47063787      -5.28718405       0.04406022      -0.01161139      -0.01027987       0.02380942
Au       6.17530144       2.37954206       2.90764199       0.04406022      -0.02189127      -0.01663318      -0.00717624
Au       6.17530144      -2.37954206       2.90764199       0.04406022      -0.02189127       0.01663318      -0.00717624
Au       4.70466357      -1.47063787       5.28718405       0.04406022      -0.01161139       0.01027987      -0.02380942
Au       4.70466357       1.47063787       5.28718405       0.04406022      -0.01161139      -0.01027987      -0.02380942
Au       7.08420563      -0.00000000       1.43700412       0.04406022      -0.02824458       0.00000000       0.00310364
Au      -6.17530144       2.37954206      -2.90764199       0.04406022       0.02189127      -0.01663318       0.00717624
Au      -6.17530144      -2.37954206      -2.90764199       0.04406022       0.02189127       0.01663318       0.00717624
Au      -4.70466357      -1.47063787      -5.28718405       0.04406022       0.01161139       0.01027987       0.02380942
Au      -4.70466357       1.47063787      -5.28718405       0.04406022       0.01161139      -0.01027987       0.02380942
Au      -6.17530144       2.37954206       2.90764199       0.04406022       0.02189127      -0.01663318      -0.00717624
Au      -6.17530144      -2.37954206       2.90764199       0.04406022       0.02189127       0.01663318      -0.00717624
Au      -4.70466357      -1.47063787       5.28718405       0.04406022       0.01161139       0.01027987      -0.02380942
Au      -4.70466357       1.47063787       5.28718405       0.04406022       0.01161139      -0.01027987      -0.02380942
Au      -7.08420563       0.00000000       1.43700412       0.04406022       0.02824458       0.00000000       0.00310364
Au      -1.43700412       7.08420563      -0.00000000       0.04406022      -0.00310364      -0.02824458      -0.00000000
Au      -1.43700412      -7.08420563       0.00000000       0.04406022      -0.00310364       0.02824458      -0.00000000
Au      -2.90764199      -6.17530144       2.37954206       0.04406022       0.00717624       0.02189127      -0.01663318
Au       2.90764199      -6.17530144       2.37954206       0.04406022      -0.00717624       0.02189127      -0.01663318
Au      -2.90764199       6.17530144       2.37954206       0.04406022       0.00717624      -0.02189127      -0.01663318
Au       2.90764199       6.17530144       2.37954206       0.04406022      -0.00717624      -0.02189127      -0.01663318
Au       0.00000000      -1.43700412       7.08420563       0.04406022      -0.00000000      -0.00310364      -0.02824458
Au      -2.90764199      -6.17530144      -2.37954206       0.04406022       0.00717624       0.02189127       0.01663318
Au       2.90764199      -6.17530144      -2.37954206       0.04406022      -0.00717624       0.02189127       0.01663318
Au      -2.90764199       6.17530144      -2.37954206       0.04406022       0.00717624      -0.02189127       0.01663318
Au       2.90764199       6.17530144      -2.37954206       0.04406022      -0.00717624      -0.02189127       0.01663318
Au       0.00000000      -1.43700412      -7.08420563       0.04406022      -0.00000000      -0.00310364       0.02824458
Au       5.28718405       4.70466357      -1.47063787       0.04406022      -0.02380942      -0.01161139       0.01027987
Au       5.28718405      -4.70466357      -1.47063787       0.04406022      -0.02380942       0.01161139       0.01027987
Au       2.37954206      -2.90764199      -6.17530144       0.04406022      -0.01663318       0.00717624       0.02189127
Au       2.37954206       2.90764199      -6.17530144       0.04406022      -0.01663318      -0.00717624       0.02189127
Au       5.28718405       4.70466357       1.47063787       0.04406022      -0.02380942      -0.01161139      -0.01027987
Au       5.28718405      -4.70466357       1.47063787       0.04406022      -0.02380942       0.01161139      -0.01027987
Au       2.37954206      -2.90764199       6.17530144       0.04406022      -0.01663318       0.00717624      -0.02189127
Au       2.37954206       2.90764199       6.17530144       0.04406022      -0.01663318      -0.00717624      -0.02189127
Au       7.08420563      -0.00000000      -1.43700412       0.04406022      -0.02824458       0.00000000      -0.00310364
Au      -5.28718405       4.70466357      -1.47063787       0.04406022       0.02380942      -0.01161139       0.01027987
Au      -5.28718405      -4.70466357      -1.47063787       0.04406022       0.02380942       0.01161139       0.01027987
Au      -2.37954206      -2.90764199      -6.17530144       0.04406022       0.01663318       0.00717624       0.02189127
Au      -2.37954206       2.90764199      -6.17530144       0.04406022       0.01663318      -0.00717624       0.02189127
Au      -5.28718405       4.70466357       1.47063787       0.04406022       0.02380942      -0.01161139      -0.01027987
Au      -5.28718405      -4.70466357       1.47063787       0.04406022       0.02380942       0.01161139      -0.01027987
Au      -2.37954206      -2.90764199       6.17530144       0.04406022       0.01663318       0.00717624      -0.02189127
Au      -2.37954206       2.90764199       6.17530144       0.04406022       0.01663318      -0.00717624      -0.02189127
Au      -7.08420563      -0.00000000      -1.43700412       0.04406022       0.02824458       0.00000000      -0.00310364
Au      -0.00000000       6.27091516      -2.39527645       0.01843113       0.00000000      -0.03089250       0.01179988
Au       3.87563871       3.87563871      -3.87563871       0.01843113      -0.01909261      -0.01909261       0.01909261
Au       2.39527645      -0.00000000      -6.27091516       0.01843113      -0.01179988       0.00000000       0.03089250
Au      -2.39527645      -0.00000000      -6.27091516       0.01843113       0.01179988       0.00000000       0.03089250
Au      -3.87563871       3.87563871      -3.87563871       0.01843113       0.01909261      -0.01909261       0.01909261
Au      -3.87563871       3.87563871       3.87563871       0.01843113       0.01909261      -0.01909261      -0.01909261
Au      -0.00000000       6.27091516       2.39527645       0.01843113       0.00000000      -0.03089250      -0.01179988
Au       3.87563871       3.87563871       3.87563871       0.01843113      -0.01909261      -0.01909261      -0.01909261
Au       6.27091516       2.39527645      -0.00000000       0.01843113      -0.03089250      -0.01179988       0.00000000
Au       6.27091516      -2.39527645       0.00000000       0.01843113      -0.03089250       0.01179988      -0.00000000
Au       3.87563871      -3.87563871      -3.87563871       0.01843113      -0.01909261       0.01909261       0.01909261
Au       0.00000000      -6.27091516      -2.39527645       0.01843113       0.00000000       0.03089250       0.01179988
Au      -3.87563871      -3.87563871      -3.87563871       0.01843113       0.01909261       0.01909261       0.01909261
Au      -6.27091516      -2.39527645      -0.00000000       0.01843113       0.03089250       0.01179988      -0.00000000
Au      -6.27091516       2.39527645       0.00000000       0.01843113       0.03089250      -0.01179988      -0.00000000
Au       0.00000000      -6.27091516       2.39527645       0.01843113      -0.00000000       0.03089250      -0.01179988
Au       3.87563871      -3.87563871       3.87563871       0.01843113      -0.01909261       0.01909261      -0.01909261
Au       2.39527645       0.00000000       6.27091516       0.01843113      -0.01179988       0.00000000      -0.03089250
Au      -2.39527645      -0.00000000       6.27091516       0.01843113       0.01179988       0.00000000      -0.03089250
Au      -3.87563871      -3.87563871       3.87563871       0.01843113       0.01909261       0.01909261      -0.01909261
Au      -5.68892963       9.20488151      -0.00000000       0.48712577      -0.01245327       0.02014981       0.00000000
Au       5.68892963       9.20488151      -0.00000000       0.48712577       0.01245327       0.02014981      -0.00000000
Au      -5.68892963      -9.20488151      -0.00000000       0.48712577      -0.01245327      -0.02014981      -0.00000000
Au       5.68892963      -9.20488151       0.00000000       0.48712577       0.01245327      -0.02014981      -0.00000000
Au       0.00000000      -5.68892963       9.20488151       0.48712577       0.00000000      -0.01245327       0.02014981
Au      -0.00000000       5.68892963       9.20488151       0.48712577       0.00000000       0.01245327       0.02014981
Au       0.00000000      -5.68892963      -9.20488151       0.48712577      -0.00000000      -0.01245327      -0.02014981
Au       0.00000000       5.68892963      -9.20488151       0.48712577       0.00000000       0.01245327      -0.02014981
Au       9.20488151      -0.00000000      -5.68892963       0.48712577       0.02014981       0.00000000      -0.01245327
Au       9.20488151       0.00000000       5.68892963       0.48712577       0.02014981      -0.00000000       0.01245327
Au      -9.20488151       0.00000000      -5.68892963       0.48712577      -0.02014981      -0.00000000      -0.01245327
Au      -9.20488151       0.00000000       5.68892963       0.48712577      -0.02014981      -0.00000000       0.01245327
Au       2.90710647       9.35293423       0.00000000       0.31360801      -0.00109602       0.02630214       0.00000000
Au       2.90710647      -9.35293423       0.00000000       0.31360801      -0.00109602      -0.02630214      -0.00000000
Au      -1.43666239      -6.66833743       7.02836565       0.31360801      -0.00867582      -0.02161757       0.01226437
Au       1.43666239      -6.66833743       7.02836565       0.31360801       0.00867582      -0.02161757       0.01226437
Au      -1.43666239       6.66833743       7.02836565       0.31360801      -0.00867582       0.02161757       0.01226437
Au       1.43666239       6.66833743       7.02836565       0.31360801       0.00867582       0.02161757       0.01226437
Au       0.00000000       2.90710647       9.35293423       0.31360801       0.00000000      -0.00109602       0.02630214
Au      -1.43666239      -6.66833743      -7.02836565       0.31360801      -0.00867582      -0.02161757      -0.01226437
Au       1.43666239      -6.66833743      -7.02836565       0.31360801       0.00867582      -0.02161757      -0.01226437
Au      -1.43666239       6.66833743      -7.02836565       0.31360801      -0.00867582       0.02161757      -0.01226437
Au       1.43666239       6.66833743      -7.02836565       0.31360801       0.00867582       0.02161757      -0.01226437
Au      -0.00000000       2.90710647      -9.35293423       0.31360801       0.00000000      -0.00109602      -0.02630214
Au       8.46502804       2.32456858      -4.34376886       0.31360801       0.02094019       0.01403777      -0.00757980
Au       8.46502804      -2.32456858      -4.34376886       0.31360801       0.02094019      -0.01403777      -0.00757980
Au       7.02836565      -1.43666239      -6.66833743       0.31360801       0.01226437      -0.00867582      -0.02161757
Au       7.02836565       1.43666239      -6.66833743       0.31360801       0.01226437       0.00867582      -0.02161757
Au       8.46502804       2.32456858       4.34376886       0.31360801       0.02094019       0.01403777       0.00757980
Au       8.46502804      -2.32456858       4.34376886       0.31360801       0.02094019      -0.01403777       0.00757980
Au       7.02836565      -1.43666239       6.66833743       0.31360801       0.01226437      -0.00867582       0.02161757
Au       7.02836565       1.43666239       6.66833743       0.31360801       0.01226437       0.00867582       0.02161757
Au       9.35293423      -0.00000000       2.90710647       0.31360801       0.02630214       0.00000000      -0.00109602
Au      -8.46502804       2.32456858      -4.34376886       0.31360801      -0.02094019       0.01403777      -0.00757980
Au      -8.46502804      -2.32456858      -4.34376886       0.31360801      -0.02094019      -0.01403777      -0.00757980
Au      -7.02836565      -1.43666239      -6.66833743       0.31360801      -0.01226437      -0.00867582      -0.02161757
Au      -7.02836565       1.43666239      -6.66833743       0.31360801      -0.01226437       0.00867582      -0.02161757
Au      -8.46502804       2.32456858       4.34376886       0.31360801      -0.02094019       0.01403777       0.00757980
Au      -8.46502804      -2.32456858       4.34376886       0.31360801      -0.02094019      -0.01403777       0.00757980
Au      -7.02836565      -1.43666239       6.66833743       0.31360801      -0.01226437      -0.00867582       0.02161757
Au      -7.02836565       1.43666239       6.66833743       0.31360801      -0.01226437       0.00867582       0.02161757
Au      -9.35293423       0.00000000       2.90710647       0.31360801      -0.02630214      -0.00000000      -0.00109602
Au      -0.00000000       9.38132386      -0.00000000       0.33040713      -0.00000000       0.00365252       0.00000000
Au       0.00000000      -9.38132386       0.00000000       0.33040713       0.00000000      -0.00365252      -0.00000000
Au      -2.89898850      -7.58965043       4.69066193       0.33040713      -0.00112869      -0.00295495       0.00182626
Au       2.89898850      -7.58965043       4.69066193       0.33040713       0.00112869      -0.00295495       0.00182626
Au      -2.89898850       7.58965043       4.69066193       0.33040713      -0.00112869       0.00295495       0.00182626
Au       2.89898850       7.58965043       4.69066193       0.33040713       0.00112869       0.00295495       0.00182626
Au       0.00000000       0.00000000       9.38132386       0.33040713       0.00000000       0.00000000       0.00365252
Au      -2.89898850      -7.58965043      -4.69066193       0.33040713      -0.00112869      -0.00295495      -0.00182626
Au       2.89898850      -7.58965043      -4.69066193       0.33040713       0.00112869      -0.00295495      -0.00182626
Au      -2.89898850       7.58965043      -4.69066193       0.33040713      -0.00112869       0.00295495      -0.00182626
Au       2.89898850       7.58965043      -4.69066193       0.33040713       0.00112869       0.00295495      -0.00182626
Au      -0.00000000       0.00000000      -9.38132386       0.33040713       0.00000000       0.00000000      -0.00365252
Au       7.58965043       4.69066193      -2.89898850       0.33040713       0.00295495       0.00182626      -0.00112869
Au       7.58965043      -4.69066193      -2.89898850       0.33040713       0.00295495      -0.00182626      -0.00112869
Au       4.69066193      -2.89898850      -7.58965043       0.33040713       0.00182626      -0.00112869      -0.00295495
Au       4.69066193       2.89898850      -7.58965043       0.33040713       0.00182626       0.00112869      -0.00295495
Au       7.58965043       4.69066193       2.89898850       0.33040713       0.00295495       0.00182626       0.00112869
Au       7.58965043      -4.69066193       2.89898850       0.33040713       0.00295495      -0.00182626       0.00112869
Au       4.69066193      -2.89898850       7.58965043       0.33040713       0.00182626      -0.00112869       0.00295495
Au       4.69066193       2.89898850       7.58965043       0.33040713       0.00182626       0.00112869       0.00295495
Au       9.38132386      -0.00000000      -0.00000000       0.33040713       0.00365252       0.00000000       0.00000000
Au      -7.58965043       4.69066193      -2.89898850       0.33040713      -0.00295495       0.00182626      -0.00112869
Au      -7.58965043      -4.69066193      -2.89898850       0.33040713      -0.00295495      -0.00182626      -0.00112869
Au      -4.69066193      -2.89898850      -7.58965043       0.33040713      -0.00182626      -0.00112869      -0.00295495
Au      -4.69066193       2.89898850      -7.58965043       0.33040713      -0.00182626       0.00112869      -0.00295495
Au      -7.58965043       4.69066193       2.89898850       0.33040713      -0.00295495       0.00182626       0.00112869
Au      -7.58965043      -4.69066193       2.89898850       0.33040713      -0.00295495      -0.00182626       0.00112869
Au      -4.69066193      -2.89898850       7.58965043       0.33040713      -0.00182626      -0.00112869       0.00295495
Au      -4.69066193       2.89898850       7.58965043       0.33040713      -0.00182626       0.00112869       0.00295495
Au      -9.38132386       0.00000000      -0.00000000       0.33040713      -0.00365252      -0.00000000       0.00000000
Au      -2.90710647       9.35293423      -0.00000000       0.31360801       0.00109602       0.02630214      -0.00000000
Au      -2.90710647      -9.35293423      -0.00000000       0.31360801       0.00109602      -0.02630214       0.00000000
Au      -4.34376886      -8.46502804       2.32456858       0.31360801      -0.00757980      -0.02094019       0.01403777
Au       4.34376886      -8.46502804       2.32456858       0.31360801       0.00757980      -0.02094019       0.01403777
Au      -4.34376886       8.46502804       2.32456858       0.31360801      -0.00757980       0.02094019       0.01403777
Au       4.34376886       8.46502804       2.32456858       0.31360801       0.00757980       0.02094019       0.01403777
Au      -0.00000000      -2.90710647       9.35293423       0.31360801      -0.00000000       0.00109602       0.02630214
Au      -4.34376886      -8.46502804      -2.32456858       0.31360801      -0.00757980      -0.02094019      -0.01403777
Au       4.34376886      -8.46502804      -2.32456858       0.31360801       0.00757980      -0.02094019      -0.01403777
Au      -4.34376886       8.46502804      -2.32456858       0.31360801      -0.00757980       0.02094019      -0.01403777
Au       4.34376886       8.46502804      -2.32456858       0.31360801       0.00757980       0.02094019      -0.01403777
Au       0.00000000      -2.90710647      -9.35293423       0.31360801      -0.00000000       0.00109602      -0.02630214
Au       6.66833743       7.02836565      -1.43666239       0.31360801       0.02161757       0.01226437      -0.00867582
Au       6.66833743      -7.02836565      -1.43666239       0.31360801       0.02161757      -0.01226437      -0.00867582
Au       2.32456858      -4.34376886      -8.46502804       0.31360801       0.01403777      -0.00757980      -0.02094019
Au       2.32456858       4.34376886      -8.46502804       0.31360801       0.01403777       0.00757980      -0.02094019
Au       6.66833743       7.02836565       1.43666239       0.31360801       0.02161757       0.01226437       0.00867582
Au       6.66833743      -7.02836565       1.43666239       0.31360801       0.02161757      -0.01226437       0.00867582
Au       2.32456858      -4.34376886       8.46502804       0.31360801       0.01403777      -0.00757980       0.02094019
Au       2.32456858       4.34376886       8.46502804       0.31360801       0.01403777       0.00757980       0.02094019
Au       9.35293423      -0.00000000      -2.90710647       0.31360801       0.02630214       0.00000000       0.00109602
Au      -6.66833743       7.02836565      -1.43666239       0.31360801      -0.02161757       0.01226437      -0.00867582
Au      -6.66833743      -7.02836565      -1.43666239       0.31360801      -0.02161757      -0.01226437      -0.00867582
Au      -2.32456858      -4.34376886      -8.46502804       0.31360801      -0.01403777      -0.00757980      -0.02094019
Au      -2.32456858       4.34376886      -8.46502804       0.31360801      -0.01403777       0.00757980      -0.02094019
Au      -6.66833743       7.02836565       1.43666239       0.31360801      -0.02161757       0.01226437       0.00867582
Au      -6.66833743      -7.02836565       1.43666239       0.31360801      -0.02161757      -0.01226437       0.00867582
Au      -2.32456858      -4.34376886       8.46502804       0.31360801      -0.01403777      -0.00757980       0.02094019
Au      -2.32456858       4.34376886       8.46502804       0.31360801      -0.01403777       0.00757980       0.02094019
Au      -9.35293423      -0.00000000      -2.90710647       0.31360801      -0.02630214       0.00000000       0.00109602
Au      -1.46849179       8.59962333      -2.37718598       0.24270319      -0.00859087       0.00576198       0.00310857
Au       0.00000000       7.69204549      -4.75325561       0.24270319       0.00000000       0.00045253      -0.01079175
Au       1.46849179       8.59962333      -2.37718598       0.24270319       0.00859087       0.00576198       0.00310857
Au       5.31485951       6.22243734      -3.84636772       0.24270319       0.00356110       0.00887055       0.00502977
Au       3.84636772       5.31485951      -6.22243734       0.24270319      -0.00502977       0.00356110      -0.00887055
Au       6.22243734       3.84636772      -5.31485951       0.24270319       0.00887055      -0.00502977      -0.00356110
Au       4.75325561      -0.00000000      -7.69204549       0.24270319       0.01079175       0.00000000      -0.00045253
Au       2.37718598       1.46849179      -8.59962333       0.24270319      -0.00310857       0.00859087      -0.00576198
Au       2.37718598      -1.46849179      -8.59962333       0.24270319      -0.00310857      -0.00859087      -0.00576198
Au      -2.37718598      -1.46849179      -8.59962333       0.24270319       0.00310857      -0.00859087      -0.00576198
Au      -2.37718598       1.46849179      -8.59962333       0.24270319       0.00310857       0.00859087      -0.00576198
Au      -4.75325561      -0.00000000      -7.69204549       0.24270319      -0.01079175       0.00000000      -0.00045253
Au      -6.22243734       3.84636772      -5.31485951       0.24270319      -0.00887055      -0.00502977      -0.00356110
Au      -3.84636772       5.31485951      -6.22243734       0.24270319       0.00502977       0.00356110      -0.00887055
Au      -5.31485951       6.22243734      -3.84636772       0.24270319      -0.00356110       0.00887055       0.00502977
Au      -6.22243734       3.84636772       5.31485951       0.24270319      -0.00887055      -0.00502977       0.00356110
Au      -5.31485951       6.22243734       3.84636772       0.24270319      -0.00356110       0.00887055      -0.00502977
Au      -3.84636772       5.31485951       6.22243734       0.24270319       0.00502977       0.00356110       0.00887055
Au       0.00000000       7.69204549       4.75325561       0.24270319       0.00000000       0.00045253       0.01079175
Au      -1.46849179       8.59962333       2.37718598       0.24270319      -0.00859087       0.00576198      -0.00310857
Au       1.46849179       8.59962333       2.37718598       0.24270319       0.00859087       0.00576198      -0.00310857
Au       3.84636772       5.31485951       6.22243734       0.24270319      -0.00502977       0.00356110       0.00887055
Au       5.31485951       6.22243734       3.84636772       0.24270319       0.00356110       0.00887055      -0.00502977
Au       6.22243734       3.84636772       5.31485951       0.24270319       0.00887055      -0.00502977       0.00356110
Au       8.59962333       2.37718598      -1.46849179       0.24270319       0.00576198      -0.00310857      -0.00859087
Au       7.69204549       4.75325561      -0.00000000       0.24270319       0.00045253       0.01079175       0.00000000
Au       8.59962333       2.37718598       1.46849179       0.24270319       0.00576198      -0.00310857       0.00859087
Au       8.59962333      -2.37718598       1.46849179       0.24270319       0.00576198       0.00310857       0.00859087
Au       8.59962333      -2.37718598      -1.46849179       0.24270319       0.00576198       0.00310857      -0.00859087
Au       7.69204549      -4.75325561      -0.00000000       0.24270319       0.00045253      -0.01079175       0.00000000
Au       5.31485951      -6.22243734      -3.84636772       0.24270319       0.00356110      -0.00887055       0.00502977
Au       6.22243734      -3.84636772      -5.31485951       0.24270319       0.00887055       0.00502977      -0.00356110
Au       3.84636772      -5.31485951      -6.22243734       0.24270319      -0.00502977      -0.00356110      -0.00887055
Au       1.46849179      -8.59962333      -2.37718598       0.24270319       0.00859087      -0.00576198       0.00310857
Au      -0.00000000      -7.69204549      -4.75325561       0.24270319       0.00000000      -0.00045253      -0.01079175
Au      -1.46849179      -8.59962333      -2.37718598       0.24270319      -0.00859087      -0.00576198       0.00310857
Au      -6.22243734      -3.84636772      -5.31485951       0.24270319      -0.00887055       0.00502977      -0.00356110
Au      -3.84636772      -5.31485951      -6.22243734       0.24270319       0.00502977      -0.00356110      -0.00887055
Au      -5.31485951      -6.22243734      -3.84636772       0.24270319      -0.00356110      -0.00887055       0.00502977
Au      -7.69204549      -4.75325561      -0.00000000       0.24270319      -0.00045253      -0.01079175       0.00000000
Au      -8.59962333      -2.37718598      -1.46849179       0.24270319      -0.00576198       0.00310857      -0.00859087
Au      -8.59962333      -2.37718598       1.46849179       0.24270319      -0.00576198       0.00310857       0.00859087
Au      -7.69204549       4.75325561       0.00000000       0.24270319      -0.00045253       0.01079175      -0.00000000
Au      -8.59962333       2.37718598      -1.46849179       0.24270319      -0.00576198      -0.00310857      -0.00859087
Au      -8.59962333       2.37718598       1.46849179       0.24270319      -0.00576198      -0.00310857       0.00859087
Au      -1.46849179      -8.59962333       2.37718598       0.24270319      -0.00859087      -0.00576198      -0.00310857
Au       0.00000000      -7.69204549       4.75325561       0.24270319       0.00000000      -0.00045253       0.01079175
Au       1.46849179      -8.59962333       2.37718598       0.24270319       0.00859087      -0.00576198      -0.00310857
Au       5.31485951      -6.22243734       3.84636772       0.24270319       0.00356110      -0.00887055      -0.00502977
Au       3.84636772      -5.31485951       6.22243734       0.24270319      -0.00502977      -0.00356110       0.00887055
Au       6.22243734      -3.84636772       5.31485951       0.24270319       0.00887055       0.00502977       0.00356110
Au       4.75325561      -0.00000000       7.69204549       0.24270319       0.01079175       0.00000000       0.00045253
Au       2.37718598      -1.46849179       8.59962333       0.24270319      -0.00310857      -0.00859087       0.00576198
Au       2.37718598       1.46849179       8.59962333       0.24270319      -0.00310857       0.00859087       0.00576198
Au      -2.37718598       1.46849179       8.59962333       0.24270319       0.00310857       0.00859087       0.00576198
Au      -2.37718598      -1.46849179       8.59962333       0.24270319       0.00310857      -0.00859087       0.00576198
Au      -4.75325561       0.00000000       7.69204549       0.24270319      -0.01079175       0.00000000       0.00045253
Au      -6.22243734      -3.84636772       5.31485951       0.24270319      -0.00887055       0.00502977       0.00356110
Au      -3.84636772      -5.31485951       6.22243734       0.24270319       0.00502977      -0.00356110       0.00887055
Au      -5.31485951      -6.22243734       3.84636772       0.24270319      -0.00356110      -0.00887055      -0.00502977
