181
Properties=species:S:1:pos:R:3:energies:R:1:forces:R:3 energy=39.63284721864396 free_energy=39.63284721864396 pbc="F F F"
Au      -9.56862063      -6.95200982       0.00000000       0.68800451      -0.01828984      -0.01328834       0.00000000
Au      -9.63040449      -4.25802645      -0.00000000       0.46149032      -0.01564634      -0.00077063       0.00000000
Au      -9.61314035      -1.41101509       0.00000000       0.46476091      -0.02183634      -0.01669657      -0.00000000
Au      -9.61314035       1.41101509       0.00000000       0.46476091      -0.02183634       0.01669657      -0.00000000
Au      -9.63040449       4.25802645      -0.00000000       0.46149032      -0.01564634       0.00077063       0.00000000
Au      -9.56862063       6.95200982       0.00000000       0.68800451      -0.01828984       0.01328834       0.00000000
Au      -7.81411787      -5.67728895      -1.49533984       0.32333180       0.00302443       0.00219737      -0.00907776
Au      -7.81411787      -5.67728895       1.49533984       0.32333180       0.00302443       0.00219737       0.00907776
Au      -7.84769533      -2.85255087      -1.49541054       0.22851572       0.00728146       0.00137892      -0.00246391
Au      -7.84769533      -2.85255087       1.49541054       0.22851572       0.00728146       0.00137892       0.00246391
Au      -7.83851417      -0.00000000      -1.49566237       0.22931631      -0.01870308       0.00000000      -0.00870199
Au      -7.83851417      -0.00000000       1.49566237       0.22931631      -0.01870308       0.00000000       0.00870199
Au      -7.84769533       2.85255087      -1.49541054       0.22851572       0.00728146      -0.00137892      -0.00246391
Au      -7.84769533       2.85255087       1.49541054       0.22851572       0.00728146      -0.00137892       0.00246391
Au      -7.81411787       5.67728895      -1.49533984       0.32333180       0.00302443      -0.00219737      -0.00907776
Au      -7.81411787       5.67728895       1.49533984       0.32333180       0.00302443      -0.00219737       0.00907776
Au      -7.02558245       7.84325641      -0.00000000       0.46149032      -0.00556789       0.01464241       0.00000000
Au      -7.02558245      -7.84325641      -0.00000000       0.46149032      -0.00556789      -0.01464241      -0.00000000
Au      -5.85391573      -4.25311873      -2.87904398       0.29568450       0.00055202       0.00040107      -0.00503146
Au      -5.93032747      -4.30863511      -0.00000000       0.01108327       0.00624511       0.00453734       0.00000000
Au      -5.85391573      -4.25311873       2.87904398       0.29568450       0.00055202       0.00040107       0.00503146
Au      -5.88490149      -1.43452946      -2.91588382       0.21482599      -0.01065906       0.00673179      -0.00859443
Au      -5.95461013      -1.44052220       0.00000000       0.00560929       0.01726532       0.02458662      -0.00000000
Au      -5.88490149      -1.43452946       2.91588382       0.21482599      -0.01065906       0.00673179       0.00859443
Au      -5.88490149       1.43452946      -2.91588382       0.21482599      -0.01065906      -0.00673179      -0.00859443
Au      -5.95461013       1.44052220      -0.00000000       0.00560929       0.01726532      -0.02458662       0.00000000
Au      -5.88490149       1.43452946       2.91588382       0.21482599      -0.01065906      -0.00673179       0.00859443
Au      -5.85391573       4.25311873      -2.87904398       0.29568450       0.00055202      -0.00040107      -0.00503146
Au      -5.93032747       4.30863511      -0.00000000       0.01108327       0.00624511      -0.00453734       0.00000000
Au      -5.85391573       4.25311873       2.87904398       0.29568450       0.00055202      -0.00040107       0.00503146
Au      -5.13800832       6.58211509      -1.49541054       0.22851572       0.00356152      -0.00649898      -0.00246391
Au      -5.13800832       6.58211509       1.49541054       0.22851572       0.00356152      -0.00649898       0.00246391
Au      -5.13800832      -6.58211509      -1.49541054       0.22851572       0.00356152       0.00649898      -0.00246391
Au      -5.13800832      -6.58211509       1.49541054       0.22851572       0.00356152       0.00649898       0.00246391
Au      -4.31257883       8.70661213      -0.00000000       0.46476091      -0.02262718       0.01560807       0.00000000
Au      -4.31257883      -8.70661213       0.00000000       0.46476091      -0.02262718      -0.01560807      -0.00000000
Au      -3.90582914      -2.83775098      -4.30002178       0.29579228      -0.00057625      -0.00041867       0.00472088
Au      -3.94857393      -2.86880688      -1.45431119       0.01551215       0.00104413       0.00075860      -0.00417871
Au      -3.94857393      -2.86880688       1.45431119       0.01551215       0.00104413       0.00075860       0.00417871
Au      -3.90582914      -2.83775098       4.30002178       0.29579228      -0.00057625      -0.00041867      -0.00472088
Au      -3.90582914       2.83775098      -4.30002178       0.29579228      -0.00057625       0.00041867       0.00472088
Au      -3.94857393       2.86880688      -1.45431119       0.01551215       0.00104413      -0.00075860      -0.00417871
Au      -3.94857393       2.86880688       1.45431119       0.01551215       0.00104413      -0.00075860       0.00417871
Au      -3.90582914       2.83775098       4.30002178       0.29579228      -0.00057625       0.00041867      -0.00472088
Au      -3.93348932      -0.00000000      -4.33973471       0.21312252      -0.01118471      -0.00000000      -0.01213731
Au      -3.97474147       0.00000000      -1.45834189       0.00440874       0.01395347      -0.00000000      -0.00485158
Au      -3.97474147      -0.00000000       1.45834189       0.00440874       0.01395347       0.00000000       0.00485158
Au      -3.93348932       0.00000000       4.33973471       0.21312252      -0.01118471      -0.00000000       0.01213731
Au      -3.18285316       5.15357993      -2.91588382       0.21482599       0.00310848       0.01221761      -0.00859443
Au      -3.21009375       5.21802493      -0.00000000       0.00560929       0.02871855      -0.00882261       0.00000000
Au      -3.18285316       5.15357993       2.91588382       0.21482599       0.00310848       0.01221761       0.00859443
Au      -3.18285316      -5.15357993      -2.91588382       0.21482599       0.00310848      -0.01221761      -0.00859443
Au      -3.21009375      -5.21802493       0.00000000       0.00560929       0.02871855       0.00882261       0.00000000
Au      -3.18285316      -5.15357993       2.91588382       0.21482599       0.00310848      -0.01221761       0.00859443
Au      -2.42223409       7.45486998      -1.49566237       0.22931631      -0.00577957       0.01778769      -0.00870199
Au      -2.42223409       7.45486998       1.49566237       0.22931631      -0.00577957       0.01778769       0.00870199
Au      -2.42223409      -7.45486998      -1.49566237       0.22931631      -0.00577957      -0.01778769      -0.00870199
Au      -2.42223409      -7.45486998       1.49566237       0.22931631      -0.00577957      -0.01778769       0.00870199
Au      -1.94644649      -1.41417616      -5.72549434       0.29407926      -0.00365009      -0.00265194      -0.00052924
Au      -1.98239059      -1.44029107      -2.90224864       0.01511602       0.00869193       0.00631506       0.01724154
Au      -1.97440704      -1.43449068      -0.00000000       0.00154021       0.00039798       0.00028915       0.00000000
Au      -1.98239059      -1.44029107       2.90224864       0.01511602       0.00869193       0.00631506      -0.01724154
Au      -1.94644649      -1.41417616       5.72549434       0.29407926      -0.00365009      -0.00265194       0.00052924
Au      -1.94644649       1.41417616      -5.72549434       0.29407926      -0.00365009       0.00265194      -0.00052924
Au      -1.98239059       1.44029107      -2.90224864       0.01511602       0.00869193      -0.00631506       0.01724154
Au      -1.97440704       1.43449068      -0.00000000       0.00154021       0.00039798      -0.00028915      -0.00000000
Au      -1.98239059       1.44029107       2.90224864       0.01511602       0.00869193      -0.00631506      -0.01724154
Au      -1.94644649       1.41417616       5.72549434       0.29407926      -0.00365009       0.00265194       0.00052924
Au      -1.62866864       9.57866741       0.00000000       0.46476091       0.00913158       0.02592712       0.00000000
Au      -1.62866864      -9.57866741      -0.00000000       0.46476091       0.00913158      -0.02592712       0.00000000
Au      -1.21551505       3.74097065      -4.33973471       0.21312252      -0.00345627       0.01063729      -0.01213731
Au      -1.22826266       3.78020378      -1.45834189       0.00440874       0.00431186      -0.01327053      -0.00485158
Au      -1.22826266       3.78020378       1.45834189       0.00440874       0.00431186      -0.01327053       0.00485158
Au      -1.21551505       3.74097065       4.33973471       0.21312252      -0.00345627       0.01063729       0.01213731
Au      -1.21551505      -3.74097065      -4.33973471       0.21312252      -0.00345627      -0.01063729      -0.01213731
Au      -1.22826266      -3.78020378      -1.45834189       0.00440874       0.00431186       0.01327053      -0.00485158
Au      -1.22826266      -3.78020378       1.45834189       0.00440874       0.00431186       0.01327053       0.00485158
Au      -1.21551505      -3.74097065       4.33973471       0.21312252      -0.00345627      -0.01063729       0.01213731
Au      -0.45421598       6.04016789      -2.91588382       0.21482599      -0.00969614       0.00805713      -0.00859443
Au      -0.47005770       6.10831661      -0.00000000       0.00560929      -0.01804799      -0.02401798       0.00000000
Au      -0.45421598       6.04016789       2.91588382       0.21482599      -0.00969614       0.00805713       0.00859443
Au      -0.45421598      -6.04016789      -2.91588382       0.21482599      -0.00969614      -0.00805713      -0.00859443
Au      -0.47005770      -6.10831661       0.00000000       0.00560929      -0.01804799       0.02401798       0.00000000
Au      -0.45421598      -6.04016789       2.91588382       0.21482599      -0.00969614      -0.00805713       0.00859443
Au      -0.00000000       0.00000000      -7.06162624       0.47595668       0.00000000       0.00000000       0.00640002
Au       0.00000000       0.00000000      -4.32319312       0.05945302       0.00000000      -0.00000000       0.00687967
Au       0.00000000       0.00000000      -1.44006268       0.00490638      -0.00000000      -0.00000000       0.01155360
Au      -0.00000000      -0.00000000       1.44006268       0.00490638       0.00000000       0.00000000      -0.01155360
Au      -0.00000000       0.00000000       4.32319312       0.05945302      -0.00000000      -0.00000000      -0.00687967
Au      -0.00000000       0.00000000       7.06162624       0.47595668      -0.00000000      -0.00000000      -0.00640002
Au       0.28786587       8.34508848      -1.49541054       0.22851572       0.00093867      -0.00735119      -0.00246391
Au       0.28786587       8.34508848       1.49541054       0.22851572       0.00093867      -0.00735119       0.00246391
Au       0.28786587      -8.34508848      -1.49541054       0.22851572       0.00093867       0.00735119      -0.00246391
Au       0.28786587      -8.34508848       1.49541054       0.22851572       0.00093867       0.00735119       0.00246391
Au       0.74347640      -2.28818509      -5.72549434       0.29407926       0.00139421      -0.00429093      -0.00052924
Au       0.75720583      -2.33043990      -2.90224864       0.01511602      -0.00332002       0.01021797       0.01724154
Au       0.75415638      -2.32105468      -0.00000000       0.00154021      -0.00015201       0.00046785      -0.00000000
Au       0.75720583      -2.33043990       2.90224864       0.01511602      -0.00332002       0.01021797      -0.01724154
Au       0.74347640      -2.28818509       5.72549434       0.29407926       0.00139421      -0.00429093       0.00052924
Au       0.74347640       2.28818509      -5.72549434       0.29407926       0.00139421       0.00429093      -0.00052924
Au       0.75720583       2.33043990      -2.90224864       0.01511602      -0.00332002      -0.01021797       0.01724154
Au       0.75415638       2.32105468      -0.00000000       0.00154021      -0.00015201      -0.00046785       0.00000000
Au       0.75720583       2.33043990       2.90224864       0.01511602      -0.00332002      -0.01021797      -0.01724154
Au       0.74347640       2.28818509       5.72549434       0.29407926       0.00139421       0.00429093       0.00052924
Au       1.07366515      10.47486148       0.00000000       0.46149032      -0.00410207       0.01511869      -0.00000000
Au       1.07366515     -10.47486148       0.00000000       0.46149032      -0.00410207      -0.01511869      -0.00000000
Au       1.49189398      -4.59157753      -4.30002178       0.29579228       0.00022011      -0.00067743       0.00472088
Au       1.50822103      -4.64182705      -1.45431119       0.01551215      -0.00039882       0.00122744      -0.00417871
Au       1.50822103      -4.64182705       1.45431119       0.01551215      -0.00039882       0.00122744       0.00417871
Au       1.49189398      -4.59157753       4.30002178       0.29579228       0.00022011      -0.00067743      -0.00472088
Au       1.49189398       4.59157753      -4.30002178       0.29579228       0.00022011       0.00067743       0.00472088
Au       1.50822103       4.64182705      -1.45431119       0.01551215      -0.00039882      -0.00122744      -0.00417871
Au       1.50822103       4.64182705       1.45431119       0.01551215      -0.00039882      -0.00122744       0.00417871
Au       1.49189398       4.59157753       4.30002178       0.29579228       0.00022011       0.00067743      -0.00472088
Au       2.23599684      -6.88169067      -2.87904398       0.29568450      -0.00021085       0.00064894      -0.00503146
Au       2.26518353      -6.97151805       0.00000000       0.01108327      -0.00238542       0.00734157      -0.00000000
Au       2.23599684      -6.88169067       2.87904398       0.29568450      -0.00021085       0.00064894       0.00503146
Au       2.23599684       6.88169067      -2.87904398       0.29568450      -0.00021085      -0.00064894      -0.00503146
Au       2.26518353       6.97151805       0.00000000       0.01108327      -0.00238542      -0.00734157      -0.00000000
Au       2.23599684       6.88169067       2.87904398       0.29568450      -0.00021085      -0.00064894       0.00503146
Au       2.40594018       0.00000000      -5.72549434       0.29407926       0.00451175      -0.00000000      -0.00052924
Au       2.45036952       0.00000000      -2.90224864       0.01511602      -0.01074381      -0.00000000       0.01724154
Au       2.44050131      -0.00000000      -0.00000000       0.00154021      -0.00049193       0.00000000       0.00000000
Au       2.45036952      -0.00000000       2.90224864       0.01511602      -0.01074381       0.00000000      -0.01724154
Au       2.40594018       0.00000000       5.72549434       0.29407926       0.00451175      -0.00000000       0.00052924
Au       2.98472743      -9.18604648      -1.49533984       0.32333180      -0.00115523       0.00355543      -0.00907776
Au       2.98472743      -9.18604648       1.49533984       0.32333180      -0.00115523       0.00355543       0.00907776
Au       2.98472743       9.18604648      -1.49533984       0.32333180      -0.00115523      -0.00355543      -0.00907776
Au       2.98472743       9.18604648       1.49533984       0.32333180      -0.00115523      -0.00355543       0.00907776
Au       3.18225971      -2.31204701      -4.33973471       0.21312252       0.00904862      -0.00657421      -0.01213731
Au       3.21563340      -2.33629442      -1.45834189       0.00440874      -0.01128859       0.00820164      -0.00485158
Au       3.21563340      -2.33629442       1.45834189       0.00440874      -0.01128859       0.00820164       0.00485158
Au       3.18225971      -2.31204701       4.33973471       0.21312252       0.00904862      -0.00657421       0.01213731
Au       3.18225971       2.31204701      -4.33973471       0.21312252       0.00904862       0.00657421      -0.01213731
Au       3.21563340       2.33629442      -1.45834189       0.00440874      -0.01128859      -0.00820164      -0.00485158
Au       3.21563340       2.33629442       1.45834189       0.00440874      -0.01128859      -0.00820164       0.00485158
Au       3.18225971       2.31204701       4.33973471       0.21312252       0.00904862       0.00657421       0.01213731
Au       3.65488785     -11.24858818       0.00000000       0.68800451       0.00698610      -0.02150099       0.00000000
Au       3.65488785      11.24858818      -0.00000000       0.68800451       0.00698610       0.02150099      -0.00000000
Au       3.91779006      -4.61961702      -2.91588382       0.21482599       0.01258021      -0.00081911      -0.00859443
Au       3.97066309      -4.66543896       0.00000000       0.00560929       0.00048372       0.03003930      -0.00000000
Au       3.91779006      -4.61961702       2.91588382       0.21482599       0.01258021      -0.00081911       0.00859443
Au       3.91779006       4.61961702      -2.91588382       0.21482599       0.01258021       0.00081911      -0.00859443
Au       3.97066309       4.66543896       0.00000000       0.00560929       0.00048372      -0.03003930       0.00000000
Au       3.91779006       4.61961702       2.91588382       0.21482599       0.01258021       0.00081911       0.00859443
Au       4.67223156      -6.92052171      -1.49541054       0.22851572      -0.00508032       0.00539550      -0.00246391
Au       4.67223156      -6.92052171       1.49541054       0.22851572      -0.00508032       0.00539550       0.00246391
Au       4.67223156       6.92052171      -1.49541054       0.22851572      -0.00508032      -0.00539550      -0.00246391
Au       4.67223156       6.92052171       1.49541054       0.22851572      -0.00508032      -0.00539550       0.00246391
Au       4.82787033      -0.00000000      -4.30002178       0.29579228       0.00071229       0.00000000       0.00472088
Au       4.88070579       0.00000000      -1.45431119       0.01551215      -0.00129061      -0.00000000      -0.00417871
Au       4.88070579       0.00000000       1.45431119       0.01551215      -0.00129061      -0.00000000       0.00417871
Au       4.82787033       0.00000000       4.30002178       0.29579228       0.00071229      -0.00000000      -0.00472088
Au       5.28835574      -9.10542550       0.00000000       0.46149032       0.01220519      -0.00982014      -0.00000000
Au       5.28835574       9.10542550       0.00000000       0.46149032       0.01220519       0.00982014       0.00000000
Au       5.60418058      -2.29849960      -2.91588382       0.21482599       0.00466652      -0.01171137      -0.00859443
Au       5.66409850      -2.33462508      -0.00000000       0.00560929      -0.02841959      -0.00974270       0.00000000
Au       5.60418058      -2.29849960       2.91588382       0.21482599       0.00466652      -0.01171137       0.00859443
Au       5.60418058       2.29849960      -2.91588382       0.21482599       0.00466652       0.01171137      -0.00859443
Au       5.66409850       2.33462508       0.00000000       0.00560929      -0.02841959       0.00974270      -0.00000000
Au       5.60418058       2.29849960       2.91588382       0.21482599       0.00466652       0.01171137       0.00859443
Au       6.34149117      -4.60736303      -1.49566237       0.22931631       0.01513111      -0.01099339      -0.00870199
Au       6.34149117      -4.60736303       1.49566237       0.22931631       0.01513111      -0.01099339       0.00870199
Au       6.34149117       4.60736303      -1.49566237       0.22931631       0.01513111       0.01099339      -0.00870199
Au       6.34149117       4.60736303       1.49566237       0.22931631       0.01513111       0.01099339       0.00870199
Au       6.94782005      -6.79199731       0.00000000       0.46476091       0.00785197      -0.02634288      -0.00000000
Au       6.94782005       6.79199731       0.00000000       0.46476091       0.00785197       0.02634288       0.00000000
Au       7.23583778      -0.00000000      -2.87904398       0.29568450      -0.00068234       0.00000000      -0.00503146
Au       7.33028788      -0.00000000       0.00000000       0.01108327      -0.00771938       0.00000000      -0.00000000
Au       7.23583778      -0.00000000       2.87904398       0.29568450      -0.00068234       0.00000000       0.00503146
Au       8.02560622      -2.30499745      -1.49541054       0.22851572      -0.00670133       0.00316437      -0.00246391
Au       8.02560622      -2.30499745       1.49541054       0.22851572      -0.00670133       0.00316437       0.00246391
Au       8.02560622       2.30499745      -1.49541054       0.22851572      -0.00670133      -0.00316437      -0.00246391
Au       8.02560622       2.30499745       1.49541054       0.22851572      -0.00670133      -0.00316437       0.00246391
Au       8.60656777      -4.50892694       0.00000000       0.46476091       0.02747997       0.00067273      -0.00000000
Au       8.60656777       4.50892694       0.00000000       0.46476091       0.02747997      -0.00067273       0.00000000
Au       9.65878087       0.00000000      -1.49533984       0.32333180      -0.00373840      -0.00000000      -0.00907776
Au       9.65878087      -0.00000000       1.49533984       0.32333180      -0.00373840       0.00000000       0.00907776
Au      10.29396605      -2.21579397       0.00000000       0.46149032       0.01311111      -0.00857323      -0.00000000
Au      10.29396605       2.21579397      -0.00000000       0.46149032       0.01311111       0.00857323       0.00000000
Au      11.82746555      -0.00000000      -0.00000000       0.68800451       0.02260748      -0.00000000      -0.00000000
