105
Properties=species:S:1:pos:R:3:energies:R:1:forces:R:3 energy=27.450640934808966 free_energy=27.450640934808966 pbc="F F F"
Au      -7.59668814      -5.51931701      -0.00000000       0.68800651      -0.00000753      -0.00000547      -0.00000000
Au      -7.65642289      -2.82788186       0.00000000       0.46003102      -0.00246636      -0.00331912      -0.00000000
Au      -7.64387140       0.00000000       0.00000000       0.46465884       0.00054742      -0.00000000      -0.00000000
Au      -7.65642289       2.82788186       0.00000000       0.46003102      -0.00246636       0.00331912      -0.00000000
Au      -7.59668814       5.51931701       0.00000000       0.68800651      -0.00000753       0.00000547      -0.00000000
Au      -5.84243279      -4.24477589      -1.50226519       0.32342419      -0.00387540      -0.00281565       0.01482741
Au      -5.84243279      -4.24477589       1.50226519       0.32342419      -0.00387540      -0.00281565      -0.01482741
Au      -5.86806090      -1.42315660      -1.49878998       0.22815088      -0.00531703      -0.00092811       0.01739467
Au      -5.86806090      -1.42315660       1.49878998       0.22815088      -0.00531703      -0.00092811      -0.01739467
Au      -5.86806090       1.42315660      -1.49878998       0.22815088      -0.00531703       0.00092811       0.01739467
Au      -5.86806090       1.42315660       1.49878998       0.22815088      -0.00531703       0.00092811      -0.01739467
Au      -5.84243279       4.24477589      -1.50226519       0.32342419      -0.00387540       0.00281565       0.01482741
Au      -5.84243279       4.24477589       1.50226519       0.32342419      -0.00387540       0.00281565      -0.01482741
Au      -5.05544026       6.40782732       0.00000000       0.46003102      -0.00391882       0.00131999       0.00000000
Au      -5.05544026      -6.40782732       0.00000000       0.46003102      -0.00391882      -0.00131999      -0.00000000
Au      -3.88640455      -2.82363818      -2.88979001       0.29703456       0.00111044       0.00080678       0.01754466
Au      -3.95848023      -2.87600423      -0.00000000       0.01060686      -0.00142751      -0.00103715       0.00000000
Au      -3.88640455      -2.82363818       2.88979001       0.29703456       0.00111044       0.00080678      -0.01754466
Au      -3.91162198      -0.00000000      -2.91396462       0.21397410      -0.00536095       0.00000000      -0.01312232
Au      -3.97399277      -0.00000000       0.00000000       0.00318480      -0.00715245       0.00000000      -0.00000000
Au      -3.91162198      -0.00000000       2.91396462       0.21397410      -0.00536095       0.00000000       0.01312232
Au      -3.88640455       2.82363818      -2.88979001       0.29703456       0.00111044      -0.00080678       0.01754466
Au      -3.95848023       2.87600423       0.00000000       0.01060686      -0.00142751       0.00103715       0.00000000
Au      -3.88640455       2.82363818       2.88979001       0.29703456       0.00111044      -0.00080678      -0.01754466
Au      -3.16683290       5.14107798      -1.49878998       0.22815088      -0.00252574       0.00476999       0.01739467
Au      -3.16683290       5.14107798       1.49878998       0.22815088      -0.00252574       0.00476999      -0.01739467
Au      -3.16683290      -5.14107798      -1.49878998       0.22815088      -0.00252574      -0.00476999       0.01739467
Au      -3.16683290      -5.14107798       1.49878998       0.22815088      -0.00252574      -0.00476999      -0.01739467
Au      -2.36208617       7.26975371      -0.00000000       0.46465884       0.00016916      -0.00052063       0.00000000
Au      -2.36208617      -7.26975371      -0.00000000       0.46465884       0.00016916       0.00052063       0.00000000
Au      -1.93928363      -1.40897203      -4.30345631       0.29423360      -0.00964728      -0.00700916      -0.00211642
Au      -1.98117892      -1.43941074      -1.45253133       0.01181790      -0.00494073      -0.00358965      -0.00749864
Au      -1.98117892      -1.43941074       1.45253133       0.01181790      -0.00494073      -0.00358965       0.00749864
Au      -1.93928363      -1.40897203       4.30345631       0.29423360      -0.00964728      -0.00700916       0.00211642
Au      -1.93928363       1.40897203      -4.30345631       0.29423360      -0.00964728       0.00700916      -0.00211642
Au      -1.98117892       1.43941074      -1.45253133       0.01181790      -0.00494073       0.00358965      -0.00749864
Au      -1.98117892       1.43941074       1.45253133       0.01181790      -0.00494073       0.00358965       0.00749864
Au      -1.93928363       1.40897203       4.30345631       0.29423360      -0.00964728       0.00700916       0.00211642
Au      -1.20875767       3.72017357      -2.91396462       0.21397410      -0.00165663       0.00509857      -0.01312232
Au      -1.22803130       3.77949172      -0.00000000       0.00318480      -0.00221023       0.00680239       0.00000000
Au      -1.20875767       3.72017357       2.91396462       0.21397410      -0.00165663       0.00509857       0.01312232
Au      -1.20875767      -3.72017357      -2.91396462       0.21397410      -0.00165663      -0.00509857      -0.01312232
Au      -1.22803130      -3.77949172       0.00000000       0.00318480      -0.00221023      -0.00680239      -0.00000000
Au      -1.20875767      -3.72017357       2.91396462       0.21397410      -0.00165663      -0.00509857       0.01312232
Au      -0.45982819       6.02063713      -1.49878998       0.22815088      -0.00076036       0.00534360       0.01739467
Au      -0.45982819       6.02063713       1.49878998       0.22815088      -0.00076036       0.00534360      -0.01739467
Au      -0.45982819      -6.02063713      -1.49878998       0.22815088      -0.00076036      -0.00534360       0.01739467
Au      -0.45982819      -6.02063713       1.49878998       0.22815088      -0.00076036      -0.00534360      -0.01739467
Au       0.00000000       0.00000000      -5.63898146       0.47491186       0.00000000      -0.00000000      -0.01701939
Au       0.00000000      -0.00000000      -2.87897809       0.04927161      -0.00000000       0.00000000      -0.01641861
Au      -0.00000000       0.00000000       0.00000000       0.00181763       0.00000000      -0.00000000      -0.00000000
Au       0.00000000      -0.00000000       2.87897809       0.04927161      -0.00000000       0.00000000       0.01641861
Au      -0.00000000       0.00000000       5.63898146       0.47491186       0.00000000       0.00000000       0.01701939
Au       0.32351068       8.15555443       0.00000000       0.46003102       0.00239452       0.00337132      -0.00000000
Au       0.32351068      -8.15555443      -0.00000000       0.46003102       0.00239452      -0.00337132       0.00000000
Au       0.74074043      -2.27976463      -4.30345631       0.29423360       0.00368493      -0.01134106      -0.00211642
Au       0.75674301      -2.32901550      -1.45253133       0.01181790       0.00188719      -0.00580817      -0.00749864
Au       0.75674301      -2.32901550       1.45253133       0.01181790       0.00188719      -0.00580817       0.00749864
Au       0.74074043      -2.27976463       4.30345631       0.29423360       0.00368493      -0.01134106       0.00211642
Au       0.74074043       2.27976463      -4.30345631       0.29423360       0.00368493       0.01134106      -0.00211642
Au       0.75674301       2.32901550      -1.45253133       0.01181790       0.00188719       0.00580817      -0.00749864
Au       0.75674301       2.32901550       1.45253133       0.01181790       0.00188719       0.00580817       0.00749864
Au       0.74074043       2.27976463       4.30345631       0.29423360       0.00368493       0.01134106       0.00211642
Au       1.48447444      -4.56874255      -2.88979001       0.29703456      -0.00042415       0.00130540       0.01754466
Au       1.51200490      -4.65347260       0.00000000       0.01060686       0.00054526      -0.00167814      -0.00000000
Au       1.48447444      -4.56874255       2.88979001       0.29703456      -0.00042415       0.00130540      -0.01754466
Au       1.48447444       4.56874255      -2.88979001       0.29703456      -0.00042415      -0.00130540       0.01754466
Au       1.51200490       4.65347260       0.00000000       0.01060686       0.00054526       0.00167814      -0.00000000
Au       1.48447444       4.56874255       2.88979001       0.29703456      -0.00042415      -0.00130540      -0.01754466
Au       2.23161075      -6.86819166      -1.50226519       0.32342419       0.00148027      -0.00455581       0.01482741
Au       2.23161075      -6.86819166       1.50226519       0.32342419       0.00148027      -0.00455581      -0.01482741
Au       2.23161075       6.86819166      -1.50226519       0.32342419       0.00148027       0.00455581       0.01482741
Au       2.23161075       6.86819166       1.50226519       0.32342419       0.00148027       0.00455581      -0.01482741
Au       2.39708639      -0.00000000      -4.30345631       0.29423360       0.01192469       0.00000000      -0.00211642
Au       2.44887182      -0.00000000      -1.45253133       0.01181790       0.00610707       0.00000000      -0.00749864
Au       2.44887182       0.00000000       1.45253133       0.01181790       0.00610707      -0.00000000       0.00749864
Au       2.39708639      -0.00000000       4.30345631       0.29423360       0.01192469       0.00000000       0.00211642
Au       2.90167667      -8.93044251       0.00000000       0.68800651       0.00000288      -0.00000885      -0.00000000
Au       2.90167667       8.93044251      -0.00000000       0.68800651       0.00000288       0.00000885       0.00000000
Au       3.16456866      -2.29919371      -2.91396462       0.21397410       0.00433710      -0.00315109      -0.01312232
Au       3.21502769      -2.33585434      -0.00000000       0.00318480       0.00578646      -0.00420411       0.00000000
Au       3.16456866      -2.29919371       2.91396462       0.21397410       0.00433710      -0.00315109       0.01312232
Au       3.16456866       2.29919371      -2.91396462       0.21397410       0.00433710       0.00315109      -0.01312232
Au       3.21502769       2.33585434       0.00000000       0.00318480       0.00578646       0.00420411      -0.00000000
Au       3.16456866       2.29919371       2.91396462       0.21397410       0.00433710       0.00315109       0.01312232
Au       3.91085053       4.60051753      -1.49878998       0.22815088       0.00375603       0.00387613       0.01739467
Au       3.91085053       4.60051753       1.49878998       0.22815088       0.00375603       0.00387613      -0.01739467
Au       3.91085053      -4.60051753      -1.49878998       0.22815088       0.00375603      -0.00387613       0.01739467
Au       3.91085053      -4.60051753       1.49878998       0.22815088       0.00375603      -0.00387613      -0.01739467
Au       4.53198898      -6.78813694      -0.00000000       0.46003102       0.00004440      -0.00413492      -0.00000000
Au       4.53198898       6.78813694      -0.00000000       0.46003102       0.00004440       0.00413492      -0.00000000
Au       4.80386021       0.00000000      -2.88979001       0.29703456      -0.00137258       0.00000000       0.01754466
Au       4.89295065       0.00000000      -0.00000000       0.01060686       0.00176450      -0.00000000       0.00000000
Au       4.80386021       0.00000000       2.88979001       0.29703456      -0.00137258      -0.00000000      -0.01754466
Au       5.58387145      -2.29780178      -1.49878998       0.22815088       0.00484710      -0.00237441       0.01739467
Au       5.58387145      -2.29780178       1.49878998       0.22815088       0.00484710      -0.00237441      -0.01739467
Au       5.58387145       2.29780178      -1.49878998       0.22815088       0.00484710       0.00237441       0.01739467
Au       5.58387145       2.29780178       1.49878998       0.22815088       0.00484710       0.00237441      -0.01739467
Au       6.18402187      -4.49295488       0.00000000       0.46465884      -0.00044288       0.00032177      -0.00000000
Au       6.18402187       4.49295488       0.00000000       0.46465884      -0.00044288      -0.00032177      -0.00000000
Au       7.22164408       0.00000000      -1.50226519       0.32342419       0.00479026      -0.00000000       0.01482741
Au       7.22164408       0.00000000       1.50226519       0.32342419       0.00479026      -0.00000000      -0.01482741
Au       7.85636348      -2.21252797       0.00000000       0.46003102       0.00394626       0.00123553      -0.00000000
Au       7.85636348       2.21252797      -0.00000000       0.46003102       0.00394626      -0.00123553       0.00000000
Au       9.39002295       0.00000000       0.00000000       0.68800651       0.00000931      -0.00000000      -0.00000000
