54
Properties=species:S:1:pos:R:3:energies:R:1:forces:R:3 energy=17.547272812801733 free_energy=17.547272812801733 pbc="F F F"
Au      -5.64292028      -4.09982157      -0.00000000       0.68911151       0.02654603       0.01928682      -0.00000000
Au      -5.67715271      -1.41065530      -0.00000000       0.45818088      -0.04559397       0.00363460       0.00000000
Au      -5.67715271       1.41065530      -0.00000000       0.45818088      -0.04559397      -0.00363460       0.00000000
Au      -5.64292028       4.09982157      -0.00000000       0.68911151       0.02654603      -0.01928682       0.00000000
Au      -3.88249771      -2.82079970      -1.50367201       0.32385922      -0.00183284      -0.00133164       0.00607738
Au      -3.88249771      -2.82079970       1.50367201       0.32385922      -0.00183284      -0.00133164      -0.00607738
Au      -3.88249771       2.82079970      -1.50367201       0.32385922      -0.00183284       0.00133164       0.00607738
Au      -3.88249771       2.82079970       1.50367201       0.32385922      -0.00183284       0.00133164      -0.00607738
Au      -3.88238153      -0.00000000      -1.50137786       0.22679962      -0.02646617       0.00000000       0.01510528
Au      -3.88238153      -0.00000000       1.50137786       0.22679962      -0.02646617      -0.00000000      -0.01510528
Au      -3.09594958      -4.96337662       0.00000000       0.45818088      -0.01063261      -0.04448559       0.00000000
Au      -3.09594958       4.96337662       0.00000000       0.45818088      -0.01063261       0.04448559       0.00000000
Au      -1.92676708      -1.39987822      -2.90576863       0.29732821       0.01038894       0.00754801       0.00350383
Au      -1.98837038      -1.44463565       0.00000000       0.00638837       0.00443685       0.00322356       0.00000000
Au      -1.92676708      -1.39987822       2.90576863       0.29732821       0.01038894       0.00754801      -0.00350383
Au      -1.92676708       1.39987822      -2.90576863       0.29732821       0.01038894      -0.00754801       0.00350383
Au      -1.98837038       1.44463565      -0.00000000       0.00638837       0.00443685      -0.00322356      -0.00000000
Au      -1.92676708       1.39987822       2.90576863       0.29732821       0.01038894      -0.00754801      -0.00350383
Au      -1.19972187      -3.69236426      -1.50137786       0.22679962      -0.00817850      -0.02517082       0.01510528
Au      -1.19972187      -3.69236426       1.50137786       0.22679962      -0.00817850      -0.02517082      -0.01510528
Au      -1.19972187       3.69236426      -1.50137786       0.22679962      -0.00817850       0.02517082       0.01510528
Au      -1.19972187       3.69236426       1.50137786       0.22679962      -0.00817850       0.02517082      -0.01510528
Au      -0.41272375      -5.83520954       0.00000000       0.45818088      -0.01754602      -0.04223929      -0.00000000
Au      -0.41272375       5.83520954       0.00000000       0.45818088      -0.01754602       0.04223929       0.00000000
Au      -0.00000000      -0.00000000      -4.25449160       0.47709965       0.00000000       0.00000000       0.04474227
Au       0.00000000      -0.00000000      -1.44992549       0.02694747      -0.00000000       0.00000000      -0.03251568
Au       0.00000000      -0.00000000       1.44992549       0.02694747      -0.00000000       0.00000000       0.03251568
Au       0.00000000      -0.00000000       4.25449160       0.47709965      -0.00000000      -0.00000000      -0.04474227
Au       0.73595954      -2.26505055      -2.90576863       0.29732821      -0.00396822       0.01221293       0.00350383
Au       0.75948990      -2.33746958       0.00000000       0.00638837      -0.00169473       0.00521583      -0.00000000
Au       0.73595954      -2.26505055       2.90576863       0.29732821      -0.00396822       0.01221293      -0.00350383
Au       0.73595954       2.26505055      -2.90576863       0.29732821      -0.00396822      -0.01221293       0.00350383
Au       0.75948990       2.33746958      -0.00000000       0.00638837      -0.00169473      -0.00521583       0.00000000
Au       0.73595954       2.26505055       2.90576863       0.29732821      -0.00396822      -0.01221293      -0.00350383
Au       1.48298216      -4.56414979      -1.50367201       0.32385922       0.00070008      -0.00215463       0.00607738
Au       1.48298216      -4.56414979       1.50367201       0.32385922       0.00070008      -0.00215463      -0.00607738
Au       1.48298216       4.56414979      -1.50367201       0.32385922       0.00070008       0.00215463       0.00607738
Au       1.48298216       4.56414979       1.50367201       0.32385922       0.00070008       0.00215463      -0.00607738
Au       2.15540375      -6.63365065       0.00000000       0.68911151      -0.01013968       0.03120673      -0.00000000
Au       2.15540375       6.63365065       0.00000000       0.68911151      -0.01013968      -0.03120673      -0.00000000
Au       2.38161509      -0.00000000      -2.90576863       0.29732821      -0.01284144       0.00000000       0.00350383
Au       2.45776096       0.00000000      -0.00000000       0.00638837      -0.00548425       0.00000000       0.00000000
Au       2.38161509       0.00000000       2.90576863       0.29732821      -0.01284144       0.00000000      -0.00350383
Au       3.14091264       2.28200661      -1.50137786       0.22679962       0.02141158       0.01555642       0.01510528
Au       3.14091264       2.28200661       1.50137786       0.22679962       0.02141158       0.01555642      -0.01510528
Au       3.14091264      -2.28200661      -1.50137786       0.22679962       0.02141158      -0.01555642       0.01510528
Au       3.14091264      -2.28200661       1.50137786       0.22679962       0.02141158      -0.01555642      -0.01510528
Au       3.76375064      -4.47819075       0.00000000       0.45818088       0.03902266      -0.02385901      -0.00000000
Au       3.76375064       4.47819075       0.00000000       0.45818088       0.03902266       0.02385901      -0.00000000
Au       4.79903109       0.00000000      -1.50367201       0.32385922       0.00226551      -0.00000000       0.00607738
Au       4.79903109      -0.00000000       1.50367201       0.32385922       0.00226551       0.00000000      -0.00607738
Au       5.42207540      -2.19570253       0.00000000       0.45818088       0.03474993      -0.02973991      -0.00000000
Au       5.42207540       2.19570253       0.00000000       0.45818088       0.03474993       0.02973991      -0.00000000
Au       6.97503306      -0.00000000       0.00000000       0.68911151      -0.03281270       0.00000000      -0.00000000
