146
Properties=species:S:1:pos:R:3:energies:R:1:forces:R:3 energy=32.905041248153864 free_energy=32.905041248153864 pbc="F F F"
Au      -9.58358437      -0.00000000      -0.00000000       0.65728797      -0.03665479       0.00000000       0.00000000
Au       9.58358437      -0.00000000      -0.00000000       0.65728797       0.03665479       0.00000000       0.00000000
Au      -0.00000000      -9.58358437       0.00000000       0.65728797      -0.00000000      -0.03665479       0.00000000
Au      -0.00000000       9.58358437      -0.00000000       0.65728797      -0.00000000       0.03665479       0.00000000
Au       0.00000000      -0.00000000      -9.58358437       0.65728797      -0.00000000      -0.00000000      -0.03665479
Au       0.00000000      -0.00000000       9.58358437       0.65728797      -0.00000000       0.00000000       0.03665479
Au      -2.01834818      -7.86640144      -0.00000000       0.37945055       0.00657419      -0.01330673       0.00000000
Au       2.01834818      -7.86640144       0.00000000       0.37945055      -0.00657419      -0.01330673      -0.00000000
Au      -2.01834818       7.86640144       0.00000000       0.37945055       0.00657419       0.01330673       0.00000000
Au       2.01834818       7.86640144       0.00000000       0.37945055      -0.00657419       0.01330673       0.00000000
Au      -2.01834818      -0.00000000      -7.86640144       0.37945055       0.00657419       0.00000000      -0.01330673
Au       2.01834818      -0.00000000      -7.86640144       0.37945055      -0.00657419       0.00000000      -0.01330673
Au      -0.00000000      -2.01834818      -7.86640144       0.37945055      -0.00000000       0.00657419      -0.01330673
Au       0.00000000       2.01834818      -7.86640144       0.37945055      -0.00000000      -0.00657419      -0.01330673
Au      -2.01834818       0.00000000       7.86640144       0.37945055       0.00657419      -0.00000000       0.01330673
Au       2.01834818       0.00000000       7.86640144       0.37945055      -0.00657419      -0.00000000       0.01330673
Au      -0.00000000      -2.01834818       7.86640144       0.37945055       0.00000000       0.00657419       0.01330673
Au      -0.00000000       2.01834818       7.86640144       0.37945055       0.00000000      -0.00657419       0.01330673
Au      -3.99434695      -5.94323171       0.00000000       0.37270707       0.01302443      -0.00333235      -0.00000000
Au       3.99434695      -5.94323171      -0.00000000       0.37270707      -0.01302443      -0.00333235       0.00000000
Au      -3.99434695       5.94323171      -0.00000000       0.37270707       0.01302443       0.00333235      -0.00000000
Au       3.99434695       5.94323171       0.00000000       0.37270707      -0.01302443       0.00333235      -0.00000000
Au      -3.99434695      -0.00000000      -5.94323171       0.37270707       0.01302443      -0.00000000      -0.00333235
Au       3.99434695      -0.00000000      -5.94323171       0.37270707      -0.01302443      -0.00000000      -0.00333235
Au      -0.00000000      -3.99434695      -5.94323171       0.37270707       0.00000000       0.01302443      -0.00333235
Au      -0.00000000       3.99434695      -5.94323171       0.37270707       0.00000000      -0.01302443      -0.00333235
Au      -3.99434695      -0.00000000       5.94323171       0.37270707       0.01302443       0.00000000       0.00333235
Au       3.99434695       0.00000000       5.94323171       0.37270707      -0.01302443      -0.00000000       0.00333235
Au       0.00000000      -3.99434695       5.94323171       0.37270707       0.00000000       0.01302443       0.00333235
Au      -0.00000000       3.99434695       5.94323171       0.37270707       0.00000000      -0.01302443       0.00333235
Au      -5.94323171      -3.99434695       0.00000000       0.37270707      -0.00333235       0.01302443      -0.00000000
Au       5.94323171      -3.99434695       0.00000000       0.37270707       0.00333235       0.01302443      -0.00000000
Au      -5.94323171       3.99434695      -0.00000000       0.37270707      -0.00333235      -0.01302443       0.00000000
Au       5.94323171       3.99434695       0.00000000       0.37270707       0.00333235      -0.01302443      -0.00000000
Au      -5.94323171       0.00000000      -3.99434695       0.37270707      -0.00333235      -0.00000000       0.01302443
Au       5.94323171      -0.00000000      -3.99434695       0.37270707       0.00333235      -0.00000000       0.01302443
Au      -0.00000000      -5.94323171      -3.99434695       0.37270707       0.00000000      -0.00333235       0.01302443
Au      -0.00000000       5.94323171      -3.99434695       0.37270707       0.00000000       0.00333235       0.01302443
Au      -5.94323171       0.00000000       3.99434695       0.37270707      -0.00333235       0.00000000      -0.01302443
Au       5.94323171      -0.00000000       3.99434695       0.37270707       0.00333235       0.00000000      -0.01302443
Au       0.00000000      -5.94323171       3.99434695       0.37270707       0.00000000      -0.00333235      -0.01302443
Au       0.00000000       5.94323171       3.99434695       0.37270707      -0.00000000       0.00333235      -0.01302443
Au      -7.86640144      -2.01834818      -0.00000000       0.37945055      -0.01330673       0.00657419      -0.00000000
Au       7.86640144      -2.01834818      -0.00000000       0.37945055       0.01330673       0.00657419       0.00000000
Au      -7.86640144       2.01834818       0.00000000       0.37945055      -0.01330673      -0.00657419       0.00000000
Au       7.86640144       2.01834818       0.00000000       0.37945055       0.01330673      -0.00657419       0.00000000
Au      -7.86640144       0.00000000      -2.01834818       0.37945055      -0.01330673      -0.00000000       0.00657419
Au       7.86640144       0.00000000      -2.01834818       0.37945055       0.01330673       0.00000000       0.00657419
Au      -0.00000000      -7.86640144      -2.01834818       0.37945055       0.00000000      -0.01330673       0.00657419
Au      -0.00000000       7.86640144      -2.01834818       0.37945055      -0.00000000       0.01330673       0.00657419
Au      -7.86640144      -0.00000000       2.01834818       0.37945055      -0.01330673       0.00000000      -0.00657419
Au       7.86640144       0.00000000       2.01834818       0.37945055       0.01330673      -0.00000000      -0.00657419
Au       0.00000000      -7.86640144       2.01834818       0.37945055       0.00000000      -0.01330673      -0.00657419
Au      -0.00000000       7.86640144       2.01834818       0.37945055       0.00000000       0.01330673      -0.00657419
Au      -6.00575795      -2.05063138      -2.05063138       0.21712417      -0.00468269       0.01085652       0.01085652
Au      -4.04543888      -4.04543888      -2.03992826       0.21547329       0.00992100       0.00992100       0.00869147
Au      -4.04543888      -2.03992826      -4.04543888       0.21547329       0.00992100       0.00869147       0.00992100
Au      -2.05063138      -6.00575795      -2.05063138       0.21712417       0.01085652      -0.00468269       0.01085652
Au      -2.03992826      -4.04543888      -4.04543888       0.21547329       0.00869147       0.00992100       0.00992100
Au      -2.05063138      -2.05063138      -6.00575795       0.21712417       0.01085652       0.01085652      -0.00468269
Au      -6.00575795      -2.05063138       2.05063138       0.21712417      -0.00468269       0.01085652      -0.01085652
Au      -4.04543888      -4.04543888       2.03992826       0.21547329       0.00992100       0.00992100      -0.00869147
Au      -4.04543888      -2.03992826       4.04543888       0.21547329       0.00992100       0.00869147      -0.00992100
Au      -2.05063138      -6.00575795       2.05063138       0.21712417       0.01085652      -0.00468269      -0.01085652
Au      -2.03992826      -4.04543888       4.04543888       0.21547329       0.00869147       0.00992100      -0.00992100
Au      -2.05063138      -2.05063138       6.00575795       0.21712417       0.01085652       0.01085652       0.00468269
Au       6.00575795      -2.05063138      -2.05063138       0.21712417       0.00468269       0.01085652       0.01085652
Au       4.04543888      -4.04543888      -2.03992826       0.21547329      -0.00992100       0.00992100       0.00869147
Au       4.04543888      -2.03992826      -4.04543888       0.21547329      -0.00992100       0.00869147       0.00992100
Au       2.05063138      -6.00575795      -2.05063138       0.21712417      -0.01085652      -0.00468269       0.01085652
Au       2.03992826      -4.04543888      -4.04543888       0.21547329      -0.00869147       0.00992100       0.00992100
Au       2.05063138      -2.05063138      -6.00575795       0.21712417      -0.01085652       0.01085652      -0.00468269
Au       6.00575795      -2.05063138       2.05063138       0.21712417       0.00468269       0.01085652      -0.01085652
Au       4.04543888      -4.04543888       2.03992826       0.21547329      -0.00992100       0.00992100      -0.00869147
Au       4.04543888      -2.03992826       4.04543888       0.21547329      -0.00992100       0.00869147      -0.00992100
Au       2.05063138      -6.00575795       2.05063138       0.21712417      -0.01085652      -0.00468269      -0.01085652
Au       2.03992826      -4.04543888       4.04543888       0.21547329      -0.00869147       0.00992100      -0.00992100
Au       2.05063138      -2.05063138       6.00575795       0.21712417      -0.01085652       0.01085652       0.00468269
Au      -6.00575795       2.05063138      -2.05063138       0.21712417      -0.00468269      -0.01085652       0.01085652
Au      -4.04543888       4.04543888      -2.03992826       0.21547329       0.00992100      -0.00992100       0.00869147
Au      -4.04543888       2.03992826      -4.04543888       0.21547329       0.00992100      -0.00869147       0.00992100
Au      -2.05063138       6.00575795      -2.05063138       0.21712417       0.01085652       0.00468269       0.01085652
Au      -2.03992826       4.04543888      -4.04543888       0.21547329       0.00869147      -0.00992100       0.00992100
Au      -2.05063138       2.05063138      -6.00575795       0.21712417       0.01085652      -0.01085652      -0.00468269
Au      -6.00575795       2.05063138       2.05063138       0.21712417      -0.00468269      -0.01085652      -0.01085652
Au      -4.04543888       4.04543888       2.03992826       0.21547329       0.00992100      -0.00992100      -0.00869147
Au      -4.04543888       2.03992826       4.04543888       0.21547329       0.00992100      -0.00869147      -0.00992100
Au      -2.05063138       6.00575795       2.05063138       0.21712417       0.01085652       0.00468269      -0.01085652
Au      -2.03992826       4.04543888       4.04543888       0.21547329       0.00869147      -0.00992100      -0.00992100
Au      -2.05063138       2.05063138       6.00575795       0.21712417       0.01085652      -0.01085652       0.00468269
Au       6.00575795       2.05063138      -2.05063138       0.21712417       0.00468269      -0.01085652       0.01085652
Au       4.04543888       4.04543888      -2.03992826       0.21547329      -0.00992100      -0.00992100       0.00869147
Au       4.04543888       2.03992826      -4.04543888       0.21547329      -0.00992100      -0.00869147       0.00992100
Au       2.05063138       6.00575795      -2.05063138       0.21712417      -0.01085652       0.00468269       0.01085652
Au       2.03992826       4.04543888      -4.04543888       0.21547329      -0.00869147      -0.00992100       0.00992100
Au       2.05063138       2.05063138      -6.00575795       0.21712417      -0.01085652      -0.01085652      -0.00468269
Au       6.00575795       2.05063138       2.05063138       0.21712417       0.00468269      -0.01085652      -0.01085652
Au       4.04543888       4.04543888       2.03992826       0.21547329      -0.00992100      -0.00992100      -0.00869147
Au       4.04543888       2.03992826       4.04543888       0.21547329      -0.00992100      -0.00869147      -0.00992100
Au       2.05063138       6.00575795       2.05063138       0.21712417      -0.01085652       0.00468269      -0.01085652
Au       2.03992826       4.04543888       4.04543888       0.21547329      -0.00869147      -0.00992100      -0.00992100
Au       2.05063138       2.05063138       6.00575795       0.21712417      -0.01085652      -0.01085652       0.00468269
Au      -0.00000000      -5.99264874       0.00000000       0.03593000      -0.00000000      -0.01148610       0.00000000
Au       2.04127261      -4.03450234      -0.00000000       0.01351224      -0.01338455       0.00105291       0.00000000
Au       4.03450234      -2.04127261      -0.00000000       0.01351224      -0.00105291       0.01338455      -0.00000000
Au       5.99264874      -0.00000000      -0.00000000       0.03593000       0.01148610       0.00000000      -0.00000000
Au      -2.04127261      -4.03450234       0.00000000       0.01351224       0.01338455       0.00105291       0.00000000
Au       0.00000000      -2.01550575      -0.00000000      -0.00338811      -0.00000000      -0.00473388       0.00000000
Au       2.01550575       0.00000000       0.00000000      -0.00338811       0.00473388       0.00000000      -0.00000000
Au       4.03450234       2.04127261       0.00000000       0.01351224      -0.00105291      -0.01338455      -0.00000000
Au      -4.03450234      -2.04127261       0.00000000       0.01351224       0.00105291       0.01338455      -0.00000000
Au      -2.01550575      -0.00000000      -0.00000000      -0.00338811      -0.00473388       0.00000000       0.00000000
Au      -0.00000000       2.01550575       0.00000000      -0.00338811       0.00000000       0.00473388      -0.00000000
Au       2.04127261       4.03450234       0.00000000       0.01351224      -0.01338455      -0.00105291      -0.00000000
Au      -5.99264874       0.00000000      -0.00000000       0.03593000      -0.01148610      -0.00000000       0.00000000
Au      -4.03450234       2.04127261       0.00000000       0.01351224       0.00105291      -0.01338455      -0.00000000
Au      -2.04127261       4.03450234      -0.00000000       0.01351224       0.01338455      -0.00105291       0.00000000
Au       0.00000000       5.99264874       0.00000000       0.03593000       0.00000000       0.01148610       0.00000000
Au      -0.00000000      -0.00000000      -5.99264874       0.03593000      -0.00000000       0.00000000      -0.01148610
Au      -0.00000000      -0.00000000       5.99264874       0.03593000       0.00000000       0.00000000       0.01148610
Au       0.00000000      -2.04127261      -4.03450234       0.01351224      -0.00000000       0.01338455       0.00105291
Au       2.04127261       0.00000000      -4.03450234       0.01351224      -0.01338455      -0.00000000       0.00105291
Au      -2.04127261      -0.00000000      -4.03450234       0.01351224       0.01338455       0.00000000       0.00105291
Au      -0.00000000       2.04127261      -4.03450234       0.01351224      -0.00000000      -0.01338455       0.00105291
Au      -0.00000000      -2.04127261       4.03450234       0.01351224       0.00000000       0.01338455      -0.00105291
Au       2.04127261      -0.00000000       4.03450234       0.01351224      -0.01338455       0.00000000      -0.00105291
Au      -2.04127261       0.00000000       4.03450234       0.01351224       0.01338455       0.00000000      -0.00105291
Au      -0.00000000       2.04127261       4.03450234       0.01351224       0.00000000      -0.01338455      -0.00105291
Au       0.00000000      -4.03450234      -2.04127261       0.01351224       0.00000000       0.00105291       0.01338455
Au       2.03999491      -2.03999491      -2.03999491       0.00095580      -0.00187827       0.00187827       0.00187827
Au       4.03450234      -0.00000000      -2.04127261       0.01351224      -0.00105291       0.00000000       0.01338455
Au      -2.03999491      -2.03999491      -2.03999491       0.00095580       0.00187827       0.00187827       0.00187827
Au       0.00000000      -0.00000000      -2.01550575      -0.00338811      -0.00000000       0.00000000      -0.00473388
Au       2.03999491       2.03999491      -2.03999491       0.00095580      -0.00187827      -0.00187827       0.00187827
Au      -4.03450234       0.00000000      -2.04127261       0.01351224       0.00105291      -0.00000000       0.01338455
Au      -2.03999491       2.03999491      -2.03999491       0.00095580       0.00187827      -0.00187827       0.00187827
Au      -0.00000000       4.03450234      -2.04127261       0.01351224       0.00000000      -0.00105291       0.01338455
Au       0.00000000      -4.03450234       2.04127261       0.01351224      -0.00000000       0.00105291      -0.01338455
Au       2.03999491      -2.03999491       2.03999491       0.00095580      -0.00187827       0.00187827      -0.00187827
Au       4.03450234      -0.00000000       2.04127261       0.01351224      -0.00105291       0.00000000      -0.01338455
Au      -2.03999491      -2.03999491       2.03999491       0.00095580       0.00187827       0.00187827      -0.00187827
Au       0.00000000       0.00000000       2.01550575      -0.00338811      -0.00000000       0.00000000       0.00473388
Au       2.03999491       2.03999491       2.03999491       0.00095580      -0.00187827      -0.00187827      -0.00187827
Au      -4.03450234       0.00000000       2.04127261       0.01351224       0.00105291       0.00000000      -0.01338455
Au      -2.03999491       2.03999491       2.03999491       0.00095580       0.00187827      -0.00187827      -0.00187827
Au      -0.00000000       4.03450234       2.04127261       0.01351224      -0.00000000      -0.00105291      -0.01338455
