231
Properties=species:S:1:pos:R:3:energies:R:1:forces:R:3 energy=44.57138752146467 free_energy=44.57138752146467 pbc="F F F"
Au     -11.57588653      -0.00000000      -0.00000000       0.65769121       0.01973153       0.00000000       0.00000000
Au      11.57588653      -0.00000000       0.00000000       0.65769121      -0.01973153      -0.00000000      -0.00000000
Au      -0.00000000     -11.57588653      -0.00000000       0.65769121      -0.00000000       0.01973153      -0.00000000
Au      -0.00000000      11.57588653      -0.00000000       0.65769121       0.00000000      -0.01973153      -0.00000000
Au       0.00000000      -0.00000000     -11.57588653       0.65769121      -0.00000000       0.00000000       0.01973153
Au       0.00000000       0.00000000      11.57588653       0.65769121      -0.00000000       0.00000000      -0.01973153
Au      -2.02094567      -9.85648536      -0.00000000       0.37937310       0.01328725      -0.01342559       0.00000000
Au       2.02094567      -9.85648536       0.00000000       0.37937310      -0.01328725      -0.01342559      -0.00000000
Au      -2.02094567       9.85648536       0.00000000       0.37937310       0.01328725       0.01342559      -0.00000000
Au       2.02094567       9.85648536       0.00000000       0.37937310      -0.01328725       0.01342559      -0.00000000
Au      -2.02094567      -0.00000000      -9.85648536       0.37937310       0.01328725       0.00000000      -0.01342559
Au       2.02094567      -0.00000000      -9.85648536       0.37937310      -0.01328725       0.00000000      -0.01342559
Au       0.00000000      -2.02094567      -9.85648536       0.37937310      -0.00000000       0.01328725      -0.01342559
Au       0.00000000       2.02094567      -9.85648536       0.37937310       0.00000000      -0.01328725      -0.01342559
Au      -2.02094567       0.00000000       9.85648536       0.37937310       0.01328725      -0.00000000       0.01342559
Au       2.02094567       0.00000000       9.85648536       0.37937310      -0.01328725      -0.00000000       0.01342559
Au       0.00000000      -2.02094567       9.85648536       0.37937310      -0.00000000       0.01328725       0.01342559
Au       0.00000000       2.02094567       9.85648536       0.37937310      -0.00000000      -0.01328725       0.01342559
Au      -4.00259028      -7.93130642       0.00000000       0.37362213       0.00906335       0.01837438       0.00000000
Au       4.00259028      -7.93130642       0.00000000       0.37362213      -0.00906335       0.01837438      -0.00000000
Au      -4.00259028       7.93130642       0.00000000       0.37362213       0.00906335      -0.01837438       0.00000000
Au       4.00259028       7.93130642      -0.00000000       0.37362213      -0.00906335      -0.01837438       0.00000000
Au      -4.00259028      -0.00000000      -7.93130642       0.37362213       0.00906335       0.00000000       0.01837438
Au       4.00259028      -0.00000000      -7.93130642       0.37362213      -0.00906335       0.00000000       0.01837438
Au       0.00000000      -4.00259028      -7.93130642       0.37362213      -0.00000000       0.00906335       0.01837438
Au      -0.00000000       4.00259028      -7.93130642       0.37362213       0.00000000      -0.00906335       0.01837438
Au      -4.00259028      -0.00000000       7.93130642       0.37362213       0.00906335       0.00000000      -0.01837438
Au       4.00259028      -0.00000000       7.93130642       0.37362213      -0.00906335       0.00000000      -0.01837438
Au       0.00000000      -4.00259028       7.93130642       0.37362213      -0.00000000       0.00906335      -0.01837438
Au      -0.00000000       4.00259028       7.93130642       0.37362213      -0.00000000      -0.00906335      -0.01837438
Au      -5.98036051      -5.98036051       0.00000000       0.37272793       0.02410139       0.02410139      -0.00000000
Au       5.98036051      -5.98036051       0.00000000       0.37272793      -0.02410139       0.02410139       0.00000000
Au      -5.98036051       5.98036051      -0.00000000       0.37272793       0.02410139      -0.02410139       0.00000000
Au       5.98036051       5.98036051       0.00000000       0.37272793      -0.02410139      -0.02410139      -0.00000000
Au      -5.98036051       0.00000000      -5.98036051       0.37272793       0.02410139      -0.00000000       0.02410139
Au       5.98036051      -0.00000000      -5.98036051       0.37272793      -0.02410139      -0.00000000       0.02410139
Au      -0.00000000      -5.98036051      -5.98036051       0.37272793      -0.00000000       0.02410139       0.02410139
Au      -0.00000000       5.98036051      -5.98036051       0.37272793       0.00000000      -0.02410139       0.02410139
Au      -5.98036051       0.00000000       5.98036051       0.37272793       0.02410139      -0.00000000      -0.02410139
Au       5.98036051      -0.00000000       5.98036051       0.37272793      -0.02410139       0.00000000      -0.02410139
Au       0.00000000      -5.98036051       5.98036051       0.37272793       0.00000000       0.02410139      -0.02410139
Au       0.00000000       5.98036051       5.98036051       0.37272793      -0.00000000      -0.02410139      -0.02410139
Au      -7.93130642      -4.00259028       0.00000000       0.37362213       0.01837438       0.00906335      -0.00000000
Au       7.93130642      -4.00259028       0.00000000       0.37362213      -0.01837438       0.00906335       0.00000000
Au      -7.93130642       4.00259028       0.00000000       0.37362213       0.01837438      -0.00906335      -0.00000000
Au       7.93130642       4.00259028       0.00000000       0.37362213      -0.01837438      -0.00906335      -0.00000000
Au      -7.93130642       0.00000000      -4.00259028       0.37362213       0.01837438      -0.00000000       0.00906335
Au       7.93130642      -0.00000000      -4.00259028       0.37362213      -0.01837438       0.00000000       0.00906335
Au      -0.00000000      -7.93130642      -4.00259028       0.37362213       0.00000000       0.01837438       0.00906335
Au      -0.00000000       7.93130642      -4.00259028       0.37362213       0.00000000      -0.01837438       0.00906335
Au      -7.93130642       0.00000000       4.00259028       0.37362213       0.01837438      -0.00000000      -0.00906335
Au       7.93130642       0.00000000       4.00259028       0.37362213      -0.01837438       0.00000000      -0.00906335
Au      -0.00000000      -7.93130642       4.00259028       0.37362213      -0.00000000       0.01837438      -0.00906335
Au      -0.00000000       7.93130642       4.00259028       0.37362213       0.00000000      -0.01837438      -0.00906335
Au      -9.85648536      -2.02094567       0.00000000       0.37937310      -0.01342559       0.01328725       0.00000000
Au       9.85648536      -2.02094567       0.00000000       0.37937310       0.01342559       0.01328725      -0.00000000
Au      -9.85648536       2.02094567      -0.00000000       0.37937310      -0.01342559      -0.01328725       0.00000000
Au       9.85648536       2.02094567       0.00000000       0.37937310       0.01342559      -0.01328725      -0.00000000
Au      -9.85648536      -0.00000000      -2.02094567       0.37937310      -0.01342559       0.00000000       0.01328725
Au       9.85648536      -0.00000000      -2.02094567       0.37937310       0.01342559       0.00000000       0.01328725
Au      -0.00000000      -9.85648536      -2.02094567       0.37937310      -0.00000000      -0.01342559       0.01328725
Au      -0.00000000       9.85648536      -2.02094567       0.37937310       0.00000000       0.01342559       0.01328725
Au      -9.85648536      -0.00000000       2.02094567       0.37937310      -0.01342559       0.00000000      -0.01328725
Au       9.85648536      -0.00000000       2.02094567       0.37937310       0.01342559      -0.00000000      -0.01328725
Au      -0.00000000      -9.85648536       2.02094567       0.37937310       0.00000000      -0.01342559      -0.01328725
Au      -0.00000000       9.85648536       2.02094567       0.37937310       0.00000000       0.01342559      -0.01328725
Au      -7.99581393      -2.05065482      -2.05065482       0.21651158      -0.00066803      -0.00195609      -0.00195609
Au      -6.03729802      -4.05637428      -2.03601158       0.21462998       0.00280903       0.00252086      -0.00174540
Au      -6.03729802      -2.03601158      -4.05637428       0.21462998       0.00280903      -0.00174540       0.00252086
Au      -4.05637428      -6.03729802      -2.03601158       0.21462998       0.00252086       0.00280903      -0.00174540
Au      -4.04575759      -4.04575759      -4.04575759       0.21349116       0.00184819       0.00184819       0.00184819
Au      -4.05637428      -2.03601158      -6.03729802       0.21462998       0.00252086      -0.00174540       0.00280903
Au      -2.05065482      -7.99581393      -2.05065482       0.21651158      -0.00195609      -0.00066803      -0.00195609
Au      -2.03601158      -6.03729802      -4.05637428       0.21462998      -0.00174540       0.00280903       0.00252086
Au      -2.03601158      -4.05637428      -6.03729802       0.21462998      -0.00174540       0.00252086       0.00280903
Au      -2.05065482      -2.05065482      -7.99581393       0.21651158      -0.00195609      -0.00195609      -0.00066803
Au      -7.99581393      -2.05065482       2.05065482       0.21651158      -0.00066803      -0.00195609       0.00195609
Au      -6.03729802      -4.05637428       2.03601158       0.21462998       0.00280903       0.00252086       0.00174540
Au      -6.03729802      -2.03601158       4.05637428       0.21462998       0.00280903      -0.00174540      -0.00252086
Au      -4.05637428      -6.03729802       2.03601158       0.21462998       0.00252086       0.00280903       0.00174540
Au      -4.04575759      -4.04575759       4.04575759       0.21349116       0.00184819       0.00184819      -0.00184819
Au      -4.05637428      -2.03601158       6.03729802       0.21462998       0.00252086      -0.00174540      -0.00280903
Au      -2.05065482      -7.99581393       2.05065482       0.21651158      -0.00195609      -0.00066803       0.00195609
Au      -2.03601158      -6.03729802       4.05637428       0.21462998      -0.00174540       0.00280903      -0.00252086
Au      -2.03601158      -4.05637428       6.03729802       0.21462998      -0.00174540       0.00252086      -0.00280903
Au      -2.05065482      -2.05065482       7.99581393       0.21651158      -0.00195609      -0.00195609       0.00066803
Au       7.99581393      -2.05065482      -2.05065482       0.21651158       0.00066803      -0.00195609      -0.00195609
Au       6.03729802      -4.05637428      -2.03601158       0.21462998      -0.00280903       0.00252086      -0.00174540
Au       6.03729802      -2.03601158      -4.05637428       0.21462998      -0.00280903      -0.00174540       0.00252086
Au       4.05637428      -6.03729802      -2.03601158       0.21462998      -0.00252086       0.00280903      -0.00174540
Au       4.04575759      -4.04575759      -4.04575759       0.21349116      -0.00184819       0.00184819       0.00184819
Au       4.05637428      -2.03601158      -6.03729802       0.21462998      -0.00252086      -0.00174540       0.00280903
Au       2.05065482      -7.99581393      -2.05065482       0.21651158       0.00195609      -0.00066803      -0.00195609
Au       2.03601158      -6.03729802      -4.05637428       0.21462998       0.00174540       0.00280903       0.00252086
Au       2.03601158      -4.05637428      -6.03729802       0.21462998       0.00174540       0.00252086       0.00280903
Au       2.05065482      -2.05065482      -7.99581393       0.21651158       0.00195609      -0.00195609      -0.00066803
Au       7.99581393      -2.05065482       2.05065482       0.21651158       0.00066803      -0.00195609       0.00195609
Au       6.03729802      -4.05637428       2.03601158       0.21462998      -0.00280903       0.00252086       0.00174540
Au       6.03729802      -2.03601158       4.05637428       0.21462998      -0.00280903      -0.00174540      -0.00252086
Au       4.05637428      -6.03729802       2.03601158       0.21462998      -0.00252086       0.00280903       0.00174540
Au       4.04575759      -4.04575759       4.04575759       0.21349116      -0.00184819       0.00184819      -0.00184819
Au       4.05637428      -2.03601158       6.03729802       0.21462998      -0.00252086      -0.00174540      -0.00280903
Au       2.05065482      -7.99581393       2.05065482       0.21651158       0.00195609      -0.00066803       0.00195609
Au       2.03601158      -6.03729802       4.05637428       0.21462998       0.00174540       0.00280903      -0.00252086
Au       2.03601158      -4.05637428       6.03729802       0.21462998       0.00174540       0.00252086      -0.00280903
Au       2.05065482      -2.05065482       7.99581393       0.21651158       0.00195609      -0.00195609       0.00066803
Au      -7.99581393       2.05065482      -2.05065482       0.21651158      -0.00066803       0.00195609      -0.00195609
Au      -6.03729802       4.05637428      -2.03601158       0.21462998       0.00280903      -0.00252086      -0.00174540
Au      -6.03729802       2.03601158      -4.05637428       0.21462998       0.00280903       0.00174540       0.00252086
Au      -4.05637428       6.03729802      -2.03601158       0.21462998       0.00252086      -0.00280903      -0.00174540
Au      -4.04575759       4.04575759      -4.04575759       0.21349116       0.00184819      -0.00184819       0.00184819
Au      -4.05637428       2.03601158      -6.03729802       0.21462998       0.00252086       0.00174540       0.00280903
Au      -2.05065482       7.99581393      -2.05065482       0.21651158      -0.00195609       0.00066803      -0.00195609
Au      -2.03601158       6.03729802      -4.05637428       0.21462998      -0.00174540      -0.00280903       0.00252086
Au      -2.03601158       4.05637428      -6.03729802       0.21462998      -0.00174540      -0.00252086       0.00280903
Au      -2.05065482       2.05065482      -7.99581393       0.21651158      -0.00195609       0.00195609      -0.00066803
Au      -7.99581393       2.05065482       2.05065482       0.21651158      -0.00066803       0.00195609       0.00195609
Au      -6.03729802       4.05637428       2.03601158       0.21462998       0.00280903      -0.00252086       0.00174540
Au      -6.03729802       2.03601158       4.05637428       0.21462998       0.00280903       0.00174540      -0.00252086
Au      -4.05637428       6.03729802       2.03601158       0.21462998       0.00252086      -0.00280903       0.00174540
Au      -4.04575759       4.04575759       4.04575759       0.21349116       0.00184819      -0.00184819      -0.00184819
Au      -4.05637428       2.03601158       6.03729802       0.21462998       0.00252086       0.00174540      -0.00280903
Au      -2.05065482       7.99581393       2.05065482       0.21651158      -0.00195609       0.00066803       0.00195609
Au      -2.03601158       6.03729802       4.05637428       0.21462998      -0.00174540      -0.00280903      -0.00252086
Au      -2.03601158       4.05637428       6.03729802       0.21462998      -0.00174540      -0.00252086      -0.00280903
Au      -2.05065482       2.05065482       7.99581393       0.21651158      -0.00195609       0.00195609       0.00066803
Au       7.99581393       2.05065482      -2.05065482       0.21651158       0.00066803       0.00195609      -0.00195609
Au       6.03729802       4.05637428      -2.03601158       0.21462998      -0.00280903      -0.00252086      -0.00174540
Au       6.03729802       2.03601158      -4.05637428       0.21462998      -0.00280903       0.00174540       0.00252086
Au       4.05637428       6.03729802      -2.03601158       0.21462998      -0.00252086      -0.00280903      -0.00174540
Au       4.04575759       4.04575759      -4.04575759       0.21349116      -0.00184819      -0.00184819       0.00184819
Au       4.05637428       2.03601158      -6.03729802       0.21462998      -0.00252086       0.00174540       0.00280903
Au       2.05065482       7.99581393      -2.05065482       0.21651158       0.00195609       0.00066803      -0.00195609
Au       2.03601158       6.03729802      -4.05637428       0.21462998       0.00174540      -0.00280903       0.00252086
Au       2.03601158       4.05637428      -6.03729802       0.21462998       0.00174540      -0.00252086       0.00280903
Au       2.05065482       2.05065482      -7.99581393       0.21651158       0.00195609       0.00195609      -0.00066803
Au       7.99581393       2.05065482       2.05065482       0.21651158       0.00066803       0.00195609       0.00195609
Au       6.03729802       4.05637428       2.03601158       0.21462998      -0.00280903      -0.00252086       0.00174540
Au       6.03729802       2.03601158       4.05637428       0.21462998      -0.00280903       0.00174540      -0.00252086
Au       4.05637428       6.03729802       2.03601158       0.21462998      -0.00252086      -0.00280903       0.00174540
Au       4.04575759       4.04575759       4.04575759       0.21349116      -0.00184819      -0.00184819      -0.00184819
Au       4.05637428       2.03601158       6.03729802       0.21462998      -0.00252086       0.00174540      -0.00280903
Au       2.05065482       7.99581393       2.05065482       0.21651158       0.00195609       0.00066803       0.00195609
Au       2.03601158       6.03729802       4.05637428       0.21462998       0.00174540      -0.00280903      -0.00252086
Au       2.03601158       4.05637428       6.03729802       0.21462998       0.00174540      -0.00252086      -0.00280903
Au       2.05065482       2.05065482       7.99581393       0.21651158       0.00195609       0.00195609       0.00066803
Au       0.00000000      -7.99205700      -0.00000000       0.03932384      -0.00000000       0.00434728       0.00000000
Au       2.04232101      -6.03422987       0.00000000       0.01532537       0.00082488      -0.00884782      -0.00000000
Au       4.04784134      -4.04784134      -0.00000000       0.01714103       0.01390222      -0.01390222       0.00000000
Au       6.03422987      -2.04232101       0.00000000       0.01532537       0.00884782      -0.00082488       0.00000000
Au       7.99205700       0.00000000       0.00000000       0.03932384      -0.00434728      -0.00000000      -0.00000000
Au      -2.04232101      -6.03422987      -0.00000000       0.01532537      -0.00082488      -0.00884782      -0.00000000
Au      -0.00000000      -4.02472938      -0.00000000      -0.00227837       0.00000000      -0.00920327      -0.00000000
Au       2.02375033      -2.02375033      -0.00000000      -0.00151156      -0.00485886       0.00485886       0.00000000
Au       4.02472938      -0.00000000       0.00000000      -0.00227837       0.00920327      -0.00000000      -0.00000000
Au       6.03422987       2.04232101      -0.00000000       0.01532537       0.00884782       0.00082488       0.00000000
Au      -4.04784134      -4.04784134       0.00000000       0.01714103      -0.01390222      -0.01390222      -0.00000000
Au      -2.02375033      -2.02375033      -0.00000000      -0.00151156       0.00485886       0.00485886       0.00000000
Au      -0.00000000       0.00000000      -0.00000000      -0.00140084       0.00000000       0.00000000      -0.00000000
Au       2.02375033       2.02375033      -0.00000000      -0.00151156      -0.00485886      -0.00485886       0.00000000
Au       4.04784134       4.04784134       0.00000000       0.01714103       0.01390222       0.01390222       0.00000000
Au      -6.03422987      -2.04232101       0.00000000       0.01532537      -0.00884782      -0.00082488      -0.00000000
Au      -4.02472938       0.00000000       0.00000000      -0.00227837      -0.00920327      -0.00000000      -0.00000000
Au      -2.02375033       2.02375033       0.00000000      -0.00151156       0.00485886      -0.00485886      -0.00000000
Au      -0.00000000       4.02472938      -0.00000000      -0.00227837       0.00000000       0.00920327      -0.00000000
Au       2.04232101       6.03422987       0.00000000       0.01532537       0.00082488       0.00884782      -0.00000000
Au      -7.99205700       0.00000000       0.00000000       0.03932384       0.00434728      -0.00000000       0.00000000
Au      -6.03422987       2.04232101       0.00000000       0.01532537      -0.00884782       0.00082488      -0.00000000
Au      -4.04784134       4.04784134       0.00000000       0.01714103      -0.01390222       0.01390222       0.00000000
Au      -2.04232101       6.03422987       0.00000000       0.01532537      -0.00082488       0.00884782      -0.00000000
Au      -0.00000000       7.99205700       0.00000000       0.03932384       0.00000000      -0.00434728      -0.00000000
Au      -0.00000000      -0.00000000      -7.99205700       0.03932384       0.00000000       0.00000000       0.00434728
Au       0.00000000      -0.00000000       7.99205700       0.03932384      -0.00000000       0.00000000      -0.00434728
Au      -0.00000000      -2.04232101      -6.03422987       0.01532537      -0.00000000      -0.00082488      -0.00884782
Au       2.04232101      -0.00000000      -6.03422987       0.01532537       0.00082488       0.00000000      -0.00884782
Au      -2.04232101       0.00000000      -6.03422987       0.01532537      -0.00082488      -0.00000000      -0.00884782
Au      -0.00000000       2.04232101      -6.03422987       0.01532537       0.00000000       0.00082488      -0.00884782
Au      -0.00000000      -2.04232101       6.03422987       0.01532537      -0.00000000      -0.00082488       0.00884782
Au       2.04232101       0.00000000       6.03422987       0.01532537       0.00082488       0.00000000       0.00884782
Au      -2.04232101      -0.00000000       6.03422987       0.01532537      -0.00082488       0.00000000       0.00884782
Au       0.00000000       2.04232101       6.03422987       0.01532537      -0.00000000       0.00082488       0.00884782
Au       0.00000000      -4.04784134      -4.04784134       0.01714103      -0.00000000      -0.01390222      -0.01390222
Au       2.04241295      -2.04241295      -4.04924992       0.00408079       0.00256452      -0.00256452      -0.01381548
Au       4.04784134       0.00000000      -4.04784134       0.01714103       0.01390222      -0.00000000      -0.01390222
Au      -2.04241295      -2.04241295      -4.04924992       0.00408079      -0.00256452      -0.00256452      -0.01381548
Au       0.00000000       0.00000000      -4.02472938      -0.00227837       0.00000000      -0.00000000      -0.00920327
Au       2.04241295       2.04241295      -4.04924992       0.00408079       0.00256452       0.00256452      -0.01381548
Au      -4.04784134      -0.00000000      -4.04784134       0.01714103      -0.01390222      -0.00000000      -0.01390222
Au      -2.04241295       2.04241295      -4.04924992       0.00408079      -0.00256452       0.00256452      -0.01381548
Au       0.00000000       4.04784134      -4.04784134       0.01714103      -0.00000000       0.01390222      -0.01390222
Au      -0.00000000      -4.04784134       4.04784134       0.01714103       0.00000000      -0.01390222       0.01390222
Au       2.04241295      -2.04241295       4.04924992       0.00408079       0.00256452      -0.00256452       0.01381548
Au       4.04784134      -0.00000000       4.04784134       0.01714103       0.01390222       0.00000000       0.01390222
Au      -2.04241295      -2.04241295       4.04924992       0.00408079      -0.00256452      -0.00256452       0.01381548
Au       0.00000000       0.00000000       4.02472938      -0.00227837      -0.00000000      -0.00000000       0.00920327
Au       2.04241295       2.04241295       4.04924992       0.00408079       0.00256452       0.00256452       0.01381548
Au      -4.04784134       0.00000000       4.04784134       0.01714103      -0.01390222      -0.00000000       0.01390222
Au      -2.04241295       2.04241295       4.04924992       0.00408079      -0.00256452       0.00256452       0.01381548
Au       0.00000000       4.04784134       4.04784134       0.01714103      -0.00000000       0.01390222       0.01390222
Au      -0.00000000      -6.03422987      -2.04232101       0.01532537       0.00000000      -0.00884782      -0.00082488
Au       2.04241295      -4.04924992      -2.04241295       0.00408079       0.00256452      -0.01381548      -0.00256452
Au       4.04924992      -2.04241295      -2.04241295       0.00408079       0.01381548      -0.00256452      -0.00256452
Au       6.03422987       0.00000000      -2.04232101       0.01532537       0.00884782       0.00000000      -0.00082488
Au      -2.04241295      -4.04924992      -2.04241295       0.00408079      -0.00256452      -0.01381548      -0.00256452
Au      -0.00000000      -2.02375033      -2.02375033      -0.00151156       0.00000000       0.00485886       0.00485886
Au       2.02375033       0.00000000      -2.02375033      -0.00151156      -0.00485886      -0.00000000       0.00485886
Au       4.04924992       2.04241295      -2.04241295       0.00408079       0.01381548       0.00256452      -0.00256452
Au      -4.04924992      -2.04241295      -2.04241295       0.00408079      -0.01381548      -0.00256452      -0.00256452
Au      -2.02375033       0.00000000      -2.02375033      -0.00151156       0.00485886       0.00000000       0.00485886
Au       0.00000000       2.02375033      -2.02375033      -0.00151156      -0.00000000      -0.00485886       0.00485886
Au       2.04241295       4.04924992      -2.04241295       0.00408079       0.00256452       0.01381548      -0.00256452
Au      -6.03422987       0.00000000      -2.04232101       0.01532537      -0.00884782      -0.00000000      -0.00082488
Au      -4.04924992       2.04241295      -2.04241295       0.00408079      -0.01381548       0.00256452      -0.00256452
Au      -2.04241295       4.04924992      -2.04241295       0.00408079      -0.00256452       0.01381548      -0.00256452
Au      -0.00000000       6.03422987      -2.04232101       0.01532537       0.00000000       0.00884782      -0.00082488
Au      -0.00000000      -6.03422987       2.04232101       0.01532537       0.00000000      -0.00884782       0.00082488
Au       2.04241295      -4.04924992       2.04241295       0.00408079       0.00256452      -0.01381548       0.00256452
Au       4.04924992      -2.04241295       2.04241295       0.00408079       0.01381548      -0.00256452       0.00256452
Au       6.03422987       0.00000000       2.04232101       0.01532537       0.00884782       0.00000000       0.00082488
Au      -2.04241295      -4.04924992       2.04241295       0.00408079      -0.00256452      -0.01381548       0.00256452
Au      -0.00000000      -2.02375033       2.02375033      -0.00151156       0.00000000       0.00485886      -0.00485886
Au       2.02375033      -0.00000000       2.02375033      -0.00151156      -0.00485886       0.00000000      -0.00485886
Au       4.04924992       2.04241295       2.04241295       0.00408079       0.01381548       0.00256452       0.00256452
Au      -4.04924992      -2.04241295       2.04241295       0.00408079      -0.01381548      -0.00256452       0.00256452
Au      -2.02375033       0.00000000       2.02375033      -0.00151156       0.00485886       0.00000000      -0.00485886
Au      -0.00000000       2.02375033       2.02375033      -0.00151156       0.00000000      -0.00485886      -0.00485886
Au       2.04241295       4.04924992       2.04241295       0.00408079       0.00256452       0.01381548       0.00256452
Au      -6.03422987       0.00000000       2.04232101       0.01532537      -0.00884782      -0.00000000       0.00082488
Au      -4.04924992       2.04241295       2.04241295       0.00408079      -0.01381548       0.00256452       0.00256452
Au      -2.04241295       4.04924992       2.04241295       0.00408079      -0.00256452       0.01381548       0.00256452
Au       0.00000000       6.03422987       2.04232101       0.01532537      -0.00000000       0.00884782       0.00082488
