44
Properties=species:S:1:pos:R:3:energies:R:1:forces:R:3 energy=14.930609657951894 free_energy=14.930609657951894 pbc="F F F"
Au      -5.71190053       0.00000000       0.00000000       0.66524216       0.01477798      -0.00000000       0.00000000
Au       5.71190053      -0.00000000       0.00000000       0.66524216      -0.01477798      -0.00000000      -0.00000000
Au      -0.00000000      -5.71190053       0.00000000       0.66524216       0.00000000       0.01477798       0.00000000
Au      -0.00000000       5.71190053       0.00000000       0.66524216       0.00000000      -0.01477798      -0.00000000
Au       0.00000000       0.00000000      -5.71190053       0.66524216       0.00000000      -0.00000000       0.01477798
Au      -0.00000000       0.00000000       5.71190053       0.66524216       0.00000000      -0.00000000      -0.01477798
Au      -1.98292020      -3.94680479       0.00000000       0.37729854      -0.00833856       0.02045245      -0.00000000
Au       1.98292020      -3.94680479       0.00000000       0.37729854       0.00833856       0.02045245      -0.00000000
Au      -1.98292020       3.94680479       0.00000000       0.37729854      -0.00833856      -0.02045245      -0.00000000
Au       1.98292020       3.94680479      -0.00000000       0.37729854       0.00833856      -0.02045245       0.00000000
Au      -1.98292020      -0.00000000      -3.94680479       0.37729854      -0.00833856       0.00000000       0.02045245
Au       1.98292020       0.00000000      -3.94680479       0.37729854       0.00833856      -0.00000000       0.02045245
Au       0.00000000      -1.98292020      -3.94680479       0.37729854      -0.00000000      -0.00833856       0.02045245
Au       0.00000000       1.98292020      -3.94680479       0.37729854      -0.00000000       0.00833856       0.02045245
Au      -1.98292020       0.00000000       3.94680479       0.37729854      -0.00833856       0.00000000      -0.02045245
Au       1.98292020       0.00000000       3.94680479       0.37729854       0.00833856      -0.00000000      -0.02045245
Au      -0.00000000      -1.98292020       3.94680479       0.37729854      -0.00000000      -0.00833856      -0.02045245
Au      -0.00000000       1.98292020       3.94680479       0.37729854      -0.00000000       0.00833856      -0.02045245
Au      -3.94680479      -1.98292020      -0.00000000       0.37729854       0.02045245      -0.00833856      -0.00000000
Au       3.94680479      -1.98292020       0.00000000       0.37729854      -0.02045245      -0.00833856      -0.00000000
Au      -3.94680479       1.98292020      -0.00000000       0.37729854       0.02045245       0.00833856       0.00000000
Au       3.94680479       1.98292020      -0.00000000       0.37729854      -0.02045245       0.00833856      -0.00000000
Au      -3.94680479      -0.00000000      -1.98292020       0.37729854       0.02045245       0.00000000      -0.00833856
Au       3.94680479       0.00000000      -1.98292020       0.37729854      -0.02045245      -0.00000000      -0.00833856
Au       0.00000000      -3.94680479      -1.98292020       0.37729854      -0.00000000       0.02045245      -0.00833856
Au       0.00000000       3.94680479      -1.98292020       0.37729854       0.00000000      -0.02045245      -0.00833856
Au      -3.94680479       0.00000000       1.98292020       0.37729854       0.02045245       0.00000000       0.00833856
Au       3.94680479       0.00000000       1.98292020       0.37729854      -0.02045245      -0.00000000       0.00833856
Au       0.00000000      -3.94680479       1.98292020       0.37729854      -0.00000000       0.02045245       0.00833856
Au      -0.00000000       3.94680479       1.98292020       0.37729854       0.00000000      -0.02045245       0.00833856
Au      -2.02478412      -2.02478412      -2.02478412       0.21547220      -0.01078458      -0.01078458      -0.01078458
Au      -2.02478412      -2.02478412       2.02478412       0.21547220      -0.01078458      -0.01078458       0.01078458
Au       2.02478412      -2.02478412      -2.02478412       0.21547220       0.01078458      -0.01078458      -0.01078458
Au       2.02478412      -2.02478412       2.02478412       0.21547220       0.01078458      -0.01078458       0.01078458
Au      -2.02478412       2.02478412      -2.02478412       0.21547220      -0.01078458       0.01078458      -0.01078458
Au      -2.02478412       2.02478412       2.02478412       0.21547220      -0.01078458       0.01078458       0.01078458
Au       2.02478412       2.02478412      -2.02478412       0.21547220       0.01078458       0.01078458      -0.01078458
Au       2.02478412       2.02478412       2.02478412       0.21547220       0.01078458       0.01078458       0.01078458
Au       0.00000000      -2.01662872      -0.00000000       0.02670234      -0.00000000      -0.01791740      -0.00000000
Au       2.01662872      -0.00000000      -0.00000000       0.02670234       0.01791740       0.00000000       0.00000000
Au      -2.01662872       0.00000000      -0.00000000       0.02670234      -0.01791740      -0.00000000      -0.00000000
Au       0.00000000       2.01662872      -0.00000000       0.02670234       0.00000000       0.01791740      -0.00000000
Au       0.00000000       0.00000000      -2.01662872       0.02670234      -0.00000000      -0.00000000      -0.01791740
Au      -0.00000000      -0.00000000       2.01662872       0.02670234       0.00000000       0.00000000       0.01791740
